MODEL 1
REMARK VINA RESULT:      -7.1      0.000      0.000
REMARK  0 active torsions:
REMARK  status: ('A' for Active; 'I' for Inactive)
REMARK       I    between atoms: C1_1  and  C2_4 
REMARK       I    between atoms: C2_4  and  O3_21 
REMARK       I    between atoms: C5_8  and  N5_11 
REMARK       I    between atoms: C10_12  and  N5_11 
REMARK       I    between atoms: C6_9  and  C7_15 
REMARK       I    between atoms: C7_15  and  C8_17 
REMARK       I    between atoms: C8_17  and  C9_19 
REMARK       I    between atoms: C1_24  and  O3_30 
REMARK       I    between atoms: C3_22  and  O3_21 
REMARK       I    between atoms: C5_27  and  C6_45 
REMARK       I    between atoms: C2_32  and  N2_39 
REMARK       I    between atoms: C7_40  and  N2_39 
REMARK       I    between atoms: C3_31  and  O3_30 
REMARK       I    between atoms: C5_36  and  C6_43 
ROOT
HETATM    1  C1  SIA C1001     -36.560  33.850  21.182  1.00 29.87     0.240 C 
HETATM    2  O1A SIA C1001     -37.188  33.231  20.326  1.00 27.54    -0.644 OA
HETATM    3  O1B SIA C1001     -36.350  33.323  22.310  1.00 32.56    -0.644 OA
HETATM    4  C2  SIA C1001     -36.036  35.243  20.876  1.00 28.70     0.271 C 
HETATM    5  C3  SIA C1001     -34.482  35.269  21.026  1.00 26.68     0.103 C 
HETATM    6  C4  SIA C1001     -33.825  34.350  20.020  1.00 27.13     0.182 C 
HETATM    7  O4  SIA C1001     -32.403  34.323  20.128  1.00 27.74    -0.221 OA
HETATM    8  C5  SIA C1001     -34.237  34.794  18.618  1.00 27.71     0.166 C 
HETATM    9  N5  SIA C1001     -33.705  33.771  17.755  1.00 25.75    -0.235 NA
HETATM   10  C6  SIA C1001     -35.783  34.840  18.496  1.00 27.96     0.176 C 
HETATM   11  O6  SIA C1001     -36.372  35.632  19.533  1.00 26.35    -0.325 OA
HETATM   12  C7  SIA C1001     -36.336  35.282  17.150  1.00 26.98     0.214 C 
HETATM   13  O7  SIA C1001     -35.603  36.407  16.700  1.00 25.74    -0.218 OA
HETATM   14  C8  SIA C1001     -37.842  35.546  17.243  1.00 27.81     0.218 C 
HETATM   15  O8  SIA C1001     -38.521  34.448  17.838  1.00 27.64    -0.218 OA
HETATM   16  C9  SIA C1001     -38.512  35.695  15.884  1.00 28.76     0.218 C 
HETATM   17  O9  SIA C1001     -39.908  35.992  16.053  1.00 25.96    -0.218 OA
HETATM   18  C10 SIA C1001     -33.277  34.047  16.542  1.00 26.15     0.252 C 
HETATM   19  O10 SIA C1001     -33.323  35.164  16.038  1.00 27.52    -0.271 OA
HETATM   20  C11 SIA C1001     -32.750  32.862  15.805  1.00 25.91     0.100 C 
HETATM   21  C1  GAL C1002     -36.723  39.494  23.250  1.00 42.56     0.270 C 
HETATM   22  C2  GAL C1002     -36.515  37.957  23.134  1.00 38.39     0.238 C 
HETATM   23  O2  GAL C1002     -35.277  37.517  23.616  1.00 35.49    -0.215 OA
HETATM   24  C3  GAL C1002     -36.556  37.445  21.698  1.00 32.50     0.186 C 
HETATM   25  O3  GAL C1002     -36.807  36.056  21.783  1.00 29.89    -0.324 OA
HETATM   26  C4  GAL C1002     -37.633  38.133  20.849  1.00 32.62     0.211 C 
HETATM   27  O4  GAL C1002     -38.916  37.717  21.252  1.00 31.61    -0.218 OA
HETATM   28  C5  GAL C1002     -37.629  39.634  21.004  1.00 32.94     0.184 C 
HETATM   29  O5  GAL C1002     -37.775  39.877  22.381  1.00 37.12    -0.326 OA
HETATM   30  C6  GAL C1002     -38.869  40.183  20.241  1.00 32.14     0.214 C 
HETATM   31  O6  GAL C1002     -39.012  41.561  20.468  1.00 30.07    -0.218 OA
HETATM   32  C1  NAG C1003     -35.889  43.403  25.896  1.00 69.25     0.294 C 
HETATM   33  O1  NAG C1003     -34.938  43.537  26.904  1.00 64.12    -0.188 OA
HETATM   34  C2  NAG C1003     -35.783  41.963  25.382  1.00 65.91     0.195 C 
HETATM   35  N2  NAG C1003     -34.840  41.956  24.287  1.00 74.96    -0.232 NA
HETATM   36  C3  NAG C1003     -37.034  41.399  24.716  1.00 60.49     0.178 C 
HETATM   37  O3  NAG C1003     -36.990  39.959  24.616  1.00 50.89    -0.327 OA
HETATM   38  C4  NAG C1003     -38.326  41.995  25.284  1.00 61.41     0.211 C 
HETATM   39  O4  NAG C1003     -39.345  41.640  24.361  1.00 69.67    -0.218 OA
HETATM   40  C5  NAG C1003     -38.186  43.528  25.482  1.00 68.17     0.184 C 
HETATM   41  O5  NAG C1003     -37.162  43.760  26.430  1.00 70.44    -0.325 OA
HETATM   42  C6  NAG C1003     -39.447  44.272  25.927  1.00 66.34     0.214 C 
HETATM   43  O6  NAG C1003     -39.785  43.731  27.177  1.00 64.10    -0.218 OA
HETATM   44  C7  NAG C1003     -33.686  41.299  24.301  1.00 80.23     0.252 C 
HETATM   45  O7  NAG C1003     -33.332  40.666  25.298  1.00 82.55    -0.271 OA
HETATM   46  C8  NAG C1003     -32.830  41.385  23.049  1.00 75.65     0.100 C 
ENDROOT
TORSDOF 12
ENDMDL
MODEL 2
REMARK VINA RESULT:      -4.3      2.508      9.502
REMARK  0 active torsions:
REMARK  status: ('A' for Active; 'I' for Inactive)
REMARK       I    between atoms: C1_1  and  C2_4 
REMARK       I    between atoms: C2_4  and  O3_21 
REMARK       I    between atoms: C5_8  and  N5_11 
REMARK       I    between atoms: C10_12  and  N5_11 
REMARK       I    between atoms: C6_9  and  C7_15 
REMARK       I    between atoms: C7_15  and  C8_17 
REMARK       I    between atoms: C8_17  and  C9_19 
REMARK       I    between atoms: C1_24  and  O3_30 
REMARK       I    between atoms: C3_22  and  O3_21 
REMARK       I    between atoms: C5_27  and  C6_45 
REMARK       I    between atoms: C2_32  and  N2_39 
REMARK       I    between atoms: C7_40  and  N2_39 
REMARK       I    between atoms: C3_31  and  O3_30 
REMARK       I    between atoms: C5_36  and  C6_43 
ROOT
HETATM    1  C1  SIA C1001     -36.689  43.077  21.675  1.00 29.87     0.240 C 
HETATM    2  O1A SIA C1001     -37.492  43.904  21.248  1.00 27.54    -0.644 OA
HETATM    3  O1B SIA C1001     -35.495  43.419  21.899  1.00 32.56    -0.644 OA
HETATM    4  C2  SIA C1001     -37.140  41.649  21.935  1.00 28.70     0.271 C 
HETATM    5  C3  SIA C1001     -36.915  41.288  23.438  1.00 26.68     0.103 C 
HETATM    6  C4  SIA C1001     -37.763  42.160  24.338  1.00 27.13     0.182 C 
HETATM    7  O4  SIA C1001     -37.579  41.882  25.725  1.00 27.74    -0.221 OA
HETATM    8  C5  SIA C1001     -39.229  41.971  23.953  1.00 27.71     0.166 C 
HETATM    9  N5  SIA C1001     -39.928  42.953  24.742  1.00 25.75    -0.235 NA
HETATM   10  C6  SIA C1001     -39.434  42.257  22.442  1.00 27.96     0.176 C 
HETATM   11  O6  SIA C1001     -38.537  41.492  21.632  1.00 26.35    -0.325 OA
HETATM   12  C7  SIA C1001     -40.852  42.092  21.917  1.00 26.98     0.214 C 
HETATM   13  O7  SIA C1001     -41.401  40.899  22.445  1.00 25.74    -0.218 OA
HETATM   14  C8  SIA C1001     -40.871  42.134  20.386  1.00 27.81     0.218 C 
HETATM   15  O8  SIA C1001     -40.178  43.274  19.894  1.00 27.64    -0.218 OA
HETATM   16  C9  SIA C1001     -42.270  42.280  19.805  1.00 28.76     0.218 C 
HETATM   17  O9  SIA C1001     -42.212  42.259  18.369  1.00 25.96    -0.218 OA
HETATM   18  C10 SIA C1001     -41.142  42.733  25.197  1.00 26.15     0.252 C 
HETATM   19  O10 SIA C1001     -41.784  41.714  24.969  1.00 27.52    -0.271 OA
HETATM   20  C11 SIA C1001     -41.696  43.860  26.002  1.00 25.91     0.100 C 
HETATM   21  C1  GAL C1002     -35.358  37.390  20.244  1.00 42.56     0.270 C 
HETATM   22  C2  GAL C1002     -35.269  38.855  20.760  1.00 38.39     0.238 C 
HETATM   23  O2  GAL C1002     -34.672  38.974  22.021  1.00 35.49    -0.215 OA
HETATM   24  C3  GAL C1002     -36.630  39.523  20.930  1.00 32.50     0.186 C 
HETATM   25  O3  GAL C1002     -36.384  40.915  20.952  1.00 29.89    -0.324 OA
HETATM   26  C4  GAL C1002     -37.612  39.171  19.805  1.00 32.62     0.211 C 
HETATM   27  O4  GAL C1002     -37.227  39.793  18.604  1.00 31.61    -0.218 OA
HETATM   28  C5  GAL C1002     -37.647  37.693  19.501  1.00 32.94     0.184 C 
HETATM   29  O5  GAL C1002     -36.321  37.332  19.206  1.00 37.12    -0.326 OA
HETATM   30  C6  GAL C1002     -38.536  37.499  18.238  1.00 32.14     0.214 C 
HETATM   31  O6  GAL C1002     -38.491  36.164  17.809  1.00 30.07    -0.218 OA
HETATM   32  C1  NAG C1003     -33.184  33.121  20.086  1.00 69.25     0.294 C 
HETATM   33  O1  NAG C1003     -32.154  32.682  20.913  1.00 64.12    -0.188 OA
HETATM   34  C2  NAG C1003     -33.507  34.557  20.513  1.00 65.91     0.195 C 
HETATM   35  N2  NAG C1003     -34.543  34.493  21.519  1.00 74.96    -0.232 NA
HETATM   36  C3  NAG C1003     -34.161  35.437  19.452  1.00 60.49     0.178 C 
HETATM   37  O3  NAG C1003     -34.077  36.838  19.788  1.00 50.89    -0.327 OA
HETATM   38  C4  NAG C1003     -33.740  35.059  18.029  1.00 61.41     0.211 C 
HETATM   39  O4  NAG C1003     -34.661  35.717  17.174  1.00 69.67    -0.218 OA
HETATM   40  C5  NAG C1003     -33.729  33.517  17.847  1.00 68.17     0.184 C 
HETATM   41  O5  NAG C1003     -32.766  32.974  18.731  1.00 70.44    -0.325 OA
HETATM   42  C6  NAG C1003     -33.446  33.003  16.435  1.00 66.34     0.214 C 
HETATM   43  O6  NAG C1003     -32.157  33.457  16.117  1.00 64.10    -0.218 OA
HETATM   44  C7  NAG C1003     -34.387  34.893  22.776  1.00 80.23     0.252 C 
HETATM   45  O7  NAG C1003     -33.301  35.324  23.172  1.00 82.55    -0.271 OA
HETATM   46  C8  NAG C1003     -35.594  34.775  23.690  1.00 75.65     0.100 C 
ENDROOT
TORSDOF 12
ENDMDL
