MODEL 1
REMARK VINA RESULT:      -6.7      0.000      0.000
REMARK  0 active torsions:
REMARK  status: ('A' for Active; 'I' for Inactive)
REMARK       I    between atoms: C1_3964  and  C2_3965 
REMARK       I    between atoms: C2_3965  and  O6_3995 
REMARK       I    between atoms: C5_3968  and  N5_3975 
REMARK       I    between atoms: C6_3969  and  C7_3970 
REMARK       I    between atoms: C7_3970  and  C8_3971 
REMARK       I    between atoms: C8_3971  and  C9_3972 
REMARK       I    between atoms: C10_3973  and  N5_3975 
REMARK       I    between atoms: C5_3988  and  C6_3989 
REMARK       I    between atoms: C6_3989  and  O6_3995 
ROOT
HETATM    1  C1  SIA A 603     -36.649  34.256  21.853  1.00 97.87     0.240 C 
HETATM    2  C2  SIA A 603     -36.555  35.642  21.250  1.00108.65     0.271 C 
HETATM    3  C3  SIA A 603     -35.141  35.601  21.326  1.00101.59     0.103 C 
HETATM    4  C4  SIA A 603     -34.374  34.702  20.517  1.00 97.89     0.182 C 
HETATM    5  C5  SIA A 603     -34.573  34.877  19.051  1.00 90.71     0.166 C 
HETATM    6  C6  SIA A 603     -36.034  34.886  18.772  1.00 94.22     0.176 C 
HETATM    7  C7  SIA A 603     -36.423  35.287  17.482  1.00 95.96     0.214 C 
HETATM    8  C8  SIA A 603     -37.975  35.367  17.454  1.00 95.66     0.218 C 
HETATM    9  C9  SIA A 603     -38.528  35.428  16.025  1.00 86.65     0.218 C 
HETATM   10  C10 SIA A 603     -33.371  33.896  16.966  1.00 85.31     0.252 C 
HETATM   11  C11 SIA A 603     -32.679  32.707  16.324  1.00 84.13     0.100 C 
HETATM   12  N5  SIA A 603     -33.897  33.772  18.352  1.00 87.90    -0.235 NA
HETATM   13  O1A SIA A 603     -37.259  33.332  21.186  1.00 89.45    -0.644 OA
HETATM   14  O1B SIA A 603     -36.180  33.993  22.996  1.00 90.16    -0.644 OA
HETATM   15  O4  SIA A 603     -32.977  34.744  20.856  1.00 93.58    -0.221 OA
HETATM   16  O6  SIA A 603     -36.577  35.893  19.805  1.00 96.74    -0.325 OA
HETATM   17  O7  SIA A 603     -35.910  36.543  17.155  1.00 91.80    -0.218 OA
HETATM   18  O8  SIA A 603     -38.581  34.317  18.141  1.00 85.38    -0.218 OA
HETATM   19  O9  SIA A 603     -39.766  36.022  15.849  1.00 87.88    -0.218 OA
HETATM   20  O10 SIA A 603     -33.498  34.962  16.318  1.00 89.96    -0.271 OA
HETATM   21  C1  GAL A 604     -38.261  40.043  24.462  1.00159.95     0.303 C 
HETATM   22  C2  GAL A 604     -39.774  40.142  24.391  1.00158.93     0.244 C 
HETATM   23  C3  GAL A 604     -40.433  38.766  24.372  1.00146.87     0.220 C 
HETATM   24  C4  GAL A 604     -39.878  37.897  23.248  1.00134.70     0.215 C 
HETATM   25  C5  GAL A 604     -38.351  37.965  23.233  1.00131.58     0.180 C 
HETATM   26  C6  GAL A 604     -37.779  37.425  21.913  1.00107.43     0.178 C 
HETATM   27  O1  GAL A 604     -37.701  41.339  24.349  1.00171.21    -0.187 OA
HETATM   28  O2  GAL A 604     -40.224  40.857  25.525  1.00162.93    -0.215 OA
HETATM   29  O3  GAL A 604     -41.819  38.926  24.220  1.00139.56    -0.218 OA
HETATM   30  O4  GAL A 604     -40.378  38.323  21.999  1.00132.79    -0.218 OA
HETATM   31  O5  GAL A 604     -37.881  39.299  23.336  1.00150.70    -0.324 OA
HETATM   32  O6  GAL A 604     -36.547  36.762  22.156  1.00103.62    -0.324 OA
ENDROOT
TORSDOF 8
ENDMDL
MODEL 2
REMARK VINA RESULT:      -5.6      2.497      4.173
REMARK  0 active torsions:
REMARK  status: ('A' for Active; 'I' for Inactive)
REMARK       I    between atoms: C1_3964  and  C2_3965 
REMARK       I    between atoms: C2_3965  and  O6_3995 
REMARK       I    between atoms: C5_3968  and  N5_3975 
REMARK       I    between atoms: C6_3969  and  C7_3970 
REMARK       I    between atoms: C7_3970  and  C8_3971 
REMARK       I    between atoms: C8_3971  and  C9_3972 
REMARK       I    between atoms: C10_3973  and  N5_3975 
REMARK       I    between atoms: C5_3988  and  C6_3989 
REMARK       I    between atoms: C6_3989  and  O6_3995 
ROOT
HETATM    1  C1  SIA A 603     -37.951  36.461  17.209  1.00 97.87     0.240 C 
HETATM    2  C2  SIA A 603     -37.420  36.663  18.613  1.00108.65     0.271 C 
HETATM    3  C3  SIA A 603     -37.423  35.264  18.837  1.00101.59     0.103 C 
HETATM    4  C4  SIA A 603     -36.529  34.392  18.136  1.00 97.89     0.182 C 
HETATM    5  C5  SIA A 603     -35.087  34.708  18.334  1.00 90.71     0.166 C 
HETATM    6  C6  SIA A 603     -34.882  36.158  18.078  1.00 94.22     0.176 C 
HETATM    7  C7  SIA A 603     -33.636  36.691  18.455  1.00 95.96     0.214 C 
HETATM    8  C8  SIA A 603     -33.691  38.230  18.241  1.00 95.66     0.218 C 
HETATM    9  C9  SIA A 603     -32.296  38.869  18.258  1.00 86.65     0.218 C 
HETATM   10  C10 SIA A 603     -32.894  33.470  17.691  1.00 85.31     0.252 C 
HETATM   11  C11 SIA A 603     -32.155  32.607  16.683  1.00 84.13     0.100 C 
HETATM   12  N5  SIA A 603     -34.296  33.880  17.409  1.00 87.90    -0.235 NA
HETATM   13  O1A SIA A 603     -37.266  36.926  16.216  1.00 89.45    -0.644 OA
HETATM   14  O1B SIA A 603     -39.053  35.884  16.990  1.00 90.16    -0.644 OA
HETATM   15  O4  SIA A 603     -36.799  33.010  18.427  1.00 93.58    -0.221 OA
HETATM   16  O6  SIA A 603     -35.994  36.818  18.918  1.00 96.74    -0.325 OA
HETATM   17  O7  SIA A 603     -33.353  36.442  19.798  1.00 91.80    -0.218 OA
HETATM   18  O8  SIA A 603     -34.349  38.587  17.065  1.00 85.38    -0.218 OA
HETATM   19  O9  SIA A 603     -32.215  40.204  18.614  1.00 87.88    -0.218 OA
HETATM   20  O10 SIA A 603     -32.311  33.831  18.740  1.00 89.96    -0.271 OA
HETATM   21  C1  GAL A 604     -40.947  38.967  22.467  1.00159.95     0.303 C 
HETATM   22  C2  GAL A 604     -40.957  40.473  22.280  1.00158.93     0.244 C 
HETATM   23  C3  GAL A 604     -40.897  40.864  20.807  1.00146.87     0.220 C 
HETATM   24  C4  GAL A 604     -39.701  40.225  20.108  1.00134.70     0.215 C 
HETATM   25  C5  GAL A 604     -39.614  38.740  20.465  1.00131.58     0.180 C 
HETATM   26  C6  GAL A 604     -38.239  38.157  20.102  1.00107.43     0.178 C 
HETATM   27  O1  GAL A 604     -40.877  38.666  23.849  1.00171.21    -0.187 OA
HETATM   28  O2  GAL A 604     -42.150  40.981  22.847  1.00162.93    -0.215 OA
HETATM   29  O3  GAL A 604     -40.823  42.262  20.708  1.00139.56    -0.218 OA
HETATM   30  O4  GAL A 604     -38.504  40.868  20.487  1.00132.79    -0.218 OA
HETATM   31  O5  GAL A 604     -39.764  38.522  21.858  1.00150.70    -0.324 OA
HETATM   32  O6  GAL A 604     -38.383  36.811  19.673  1.00103.62    -0.324 OA
ENDROOT
TORSDOF 8
ENDMDL
MODEL 3
REMARK VINA RESULT:      -5.3      2.014      4.420
REMARK  0 active torsions:
REMARK  status: ('A' for Active; 'I' for Inactive)
REMARK       I    between atoms: C1_3964  and  C2_3965 
REMARK       I    between atoms: C2_3965  and  O6_3995 
REMARK       I    between atoms: C5_3968  and  N5_3975 
REMARK       I    between atoms: C6_3969  and  C7_3970 
REMARK       I    between atoms: C7_3970  and  C8_3971 
REMARK       I    between atoms: C8_3971  and  C9_3972 
REMARK       I    between atoms: C10_3973  and  N5_3975 
REMARK       I    between atoms: C5_3988  and  C6_3989 
REMARK       I    between atoms: C6_3989  and  O6_3995 
ROOT
HETATM    1  C1  SIA A 603     -36.056  39.144  18.552  1.00 97.87     0.240 C 
HETATM    2  C2  SIA A 603     -36.824  38.078  19.304  1.00108.65     0.271 C 
HETATM    3  C3  SIA A 603     -37.399  37.613  18.095  1.00101.59     0.103 C 
HETATM    4  C4  SIA A 603     -36.609  36.975  17.086  1.00 97.89     0.182 C 
HETATM    5  C5  SIA A 603     -35.897  35.751  17.550  1.00 90.71     0.166 C 
HETATM    6  C6  SIA A 603     -35.173  36.075  18.808  1.00 94.22     0.176 C 
HETATM    7  C7  SIA A 603     -34.647  34.986  19.527  1.00 95.96     0.214 C 
HETATM    8  C8  SIA A 603     -34.071  35.531  20.864  1.00 95.66     0.218 C 
HETATM    9  C9  SIA A 603     -33.150  34.517  21.555  1.00 86.65     0.218 C 
HETATM   10  C10 SIA A 603     -34.554  33.902  16.313  1.00 85.31     0.252 C 
HETATM   11  C11 SIA A 603     -33.601  33.543  15.186  1.00 84.13     0.100 C 
HETATM   12  N5  SIA A 603     -34.971  35.319  16.490  1.00 87.90    -0.235 NA
HETATM   13  O1A SIA A 603     -34.767  39.166  18.654  1.00 89.45    -0.644 OA
HETATM   14  O1B SIA A 603     -36.641  40.026  17.862  1.00 90.16    -0.644 OA
HETATM   15  O4  SIA A 603     -37.377  36.707  15.901  1.00 93.58    -0.221 OA
HETATM   16  O6  SIA A 603     -36.252  36.775  19.658  1.00 96.74    -0.325 OA
HETATM   17  O7  SIA A 603     -35.629  34.041  19.821  1.00 91.80    -0.218 OA
HETATM   18  O8  SIA A 603     -33.393  36.739  20.706  1.00 85.38    -0.218 OA
HETATM   19  O9  SIA A 603     -33.010  34.622  22.928  1.00 87.88    -0.218 OA
HETATM   20  O10 SIA A 603     -34.969  33.003  17.082  1.00 89.96    -0.271 OA
HETATM   21  C1  GAL A 604     -41.129  39.780  22.645  1.00159.95     0.303 C 
HETATM   22  C2  GAL A 604     -40.560  40.266  23.965  1.00158.93     0.244 C 
HETATM   23  C3  GAL A 604     -39.249  41.023  23.775  1.00146.87     0.220 C 
HETATM   24  C4  GAL A 604     -38.231  40.190  23.002  1.00134.70     0.215 C 
HETATM   25  C5  GAL A 604     -38.887  39.564  21.771  1.00131.58     0.180 C 
HETATM   26  C6  GAL A 604     -38.022  38.435  21.189  1.00107.43     0.178 C 
HETATM   27  O1  GAL A 604     -42.272  38.981  22.892  1.00171.21    -0.187 OA
HETATM   28  O2  GAL A 604     -41.509  41.125  24.567  1.00162.93    -0.215 OA
HETATM   29  O3  GAL A 604     -38.734  41.368  25.035  1.00139.56    -0.218 OA
HETATM   30  O4  GAL A 604     -37.702  39.170  23.821  1.00132.79    -0.218 OA
HETATM   31  O5  GAL A 604     -40.134  38.966  22.085  1.00150.70    -0.324 OA
HETATM   32  O6  GAL A 604     -38.142  38.415  19.774  1.00103.62    -0.324 OA
ENDROOT
TORSDOF 8
ENDMDL
MODEL 4
REMARK VINA RESULT:      -5.2      2.936      8.197
REMARK  0 active torsions:
REMARK  status: ('A' for Active; 'I' for Inactive)
REMARK       I    between atoms: C1_3964  and  C2_3965 
REMARK       I    between atoms: C2_3965  and  O6_3995 
REMARK       I    between atoms: C5_3968  and  N5_3975 
REMARK       I    between atoms: C6_3969  and  C7_3970 
REMARK       I    between atoms: C7_3970  and  C8_3971 
REMARK       I    between atoms: C8_3971  and  C9_3972 
REMARK       I    between atoms: C10_3973  and  N5_3975 
REMARK       I    between atoms: C5_3988  and  C6_3989 
REMARK       I    between atoms: C6_3989  and  O6_3995 
ROOT
HETATM    1  C1  SIA A 603     -36.126  40.256  20.890  1.00 97.87     0.240 C 
HETATM    2  C2  SIA A 603     -36.650  38.870  21.199  1.00108.65     0.271 C 
HETATM    3  C3  SIA A 603     -36.456  39.084  22.586  1.00101.59     0.103 C 
HETATM    4  C4  SIA A 603     -37.240  40.037  23.313  1.00 97.89     0.182 C 
HETATM    5  C5  SIA A 603     -38.708  39.783  23.268  1.00 90.71     0.166 C 
HETATM    6  C6  SIA A 603     -39.109  39.587  21.849  1.00 94.22     0.176 C 
HETATM    7  C7  SIA A 603     -40.407  39.092  21.627  1.00 95.96     0.214 C 
HETATM    8  C8  SIA A 603     -40.561  38.824  20.104  1.00 95.66     0.218 C 
HETATM    9  C9  SIA A 603     -42.028  38.642  19.692  1.00 86.65     0.218 C 
HETATM   10  C10 SIA A 603     -40.729  40.822  24.529  1.00 85.31     0.252 C 
HETATM   11  C11 SIA A 603     -41.367  42.060  25.133  1.00 84.13     0.100 C 
HETATM   12  N5  SIA A 603     -39.400  40.934  23.870  1.00 87.90    -0.235 NA
HETATM   13  O1A SIA A 603     -36.886  41.073  20.238  1.00 89.45    -0.644 OA
HETATM   14  O1B SIA A 603     -34.961  40.617  21.220  1.00 90.16    -0.644 OA
HETATM   15  O4  SIA A 603     -36.783  40.178  24.668  1.00 93.58    -0.221 OA
HETATM   16  O6  SIA A 603     -38.078  38.562  21.337  1.00 96.74    -0.325 OA
HETATM   17  O7  SIA A 603     -40.627  37.897  22.311  1.00 91.80    -0.218 OA
HETATM   18  O8  SIA A 603     -39.980  39.820  19.320  1.00 85.38    -0.218 OA
HETATM   19  O9  SIA A 603     -42.278  37.897  18.554  1.00 87.88    -0.218 OA
HETATM   20  O10 SIA A 603     -41.333  39.725  24.587  1.00 89.96    -0.271 OA
HETATM   21  C1  GAL A 604     -33.383  34.420  19.738  1.00159.95     0.303 C 
HETATM   22  C2  GAL A 604     -33.577  34.137  18.260  1.00158.93     0.244 C 
HETATM   23  C3  GAL A 604     -33.719  35.421  17.449  1.00146.87     0.220 C 
HETATM   24  C4  GAL A 604     -34.833  36.307  17.997  1.00134.70     0.215 C 
HETATM   25  C5  GAL A 604     -34.715  36.424  19.517  1.00131.58     0.180 C 
HETATM   26  C6  GAL A 604     -36.007  36.978  20.138  1.00107.43     0.178 C 
HETATM   27  O1  GAL A 604     -33.384  33.198  20.455  1.00171.21    -0.187 OA
HETATM   28  O2  GAL A 604     -32.452  33.416  17.796  1.00162.93    -0.215 OA
HETATM   29  O3  GAL A 604     -33.981  35.089  16.110  1.00139.56    -0.218 OA
HETATM   30  O4  GAL A 604     -36.098  35.776  17.665  1.00132.79    -0.218 OA
HETATM   31  O5  GAL A 604     -34.508  35.161  20.128  1.00150.70    -0.324 OA
HETATM   32  O6  GAL A 604     -35.694  37.794  21.257  1.00103.62    -0.324 OA
ENDROOT
TORSDOF 8
ENDMDL
MODEL 5
REMARK VINA RESULT:      -5.2      4.490      8.525
REMARK  0 active torsions:
REMARK  status: ('A' for Active; 'I' for Inactive)
REMARK       I    between atoms: C1_3964  and  C2_3965 
REMARK       I    between atoms: C2_3965  and  O6_3995 
REMARK       I    between atoms: C5_3968  and  N5_3975 
REMARK       I    between atoms: C6_3969  and  C7_3970 
REMARK       I    between atoms: C7_3970  and  C8_3971 
REMARK       I    between atoms: C8_3971  and  C9_3972 
REMARK       I    between atoms: C10_3973  and  N5_3975 
REMARK       I    between atoms: C5_3988  and  C6_3989 
REMARK       I    between atoms: C6_3989  and  O6_3995 
ROOT
HETATM    1  C1  SIA A 603     -38.430  38.817  21.393  1.00 97.87     0.240 C 
HETATM    2  C2  SIA A 603     -37.997  38.808  19.942  1.00108.65     0.271 C 
HETATM    3  C3  SIA A 603     -39.341  38.648  19.522  1.00101.59     0.103 C 
HETATM    4  C4  SIA A 603     -40.310  39.688  19.700  1.00 97.89     0.182 C 
HETATM    5  C5  SIA A 603     -39.956  40.973  19.035  1.00 90.71     0.166 C 
HETATM    6  C6  SIA A 603     -38.565  41.335  19.417  1.00 94.22     0.176 C 
HETATM    7  C7  SIA A 603     -37.970  42.384  18.694  1.00 95.96     0.214 C 
HETATM    8  C8  SIA A 603     -36.487  42.494  19.148  1.00 95.66     0.218 C 
HETATM    9  C9  SIA A 603     -35.844  43.818  18.716  1.00 86.65     0.218 C 
HETATM   10  C10 SIA A 603     -41.268  43.179  18.624  1.00 85.31     0.252 C 
HETATM   11  C11 SIA A 603     -42.278  44.187  19.141  1.00 84.13     0.100 C 
HETATM   12  N5  SIA A 603     -40.918  42.001  19.463  1.00 87.90    -0.235 NA
HETATM   13  O1A SIA A 603     -38.128  39.841  22.122  1.00 89.45    -0.644 OA
HETATM   14  O1B SIA A 603     -39.042  37.841  21.912  1.00 90.16    -0.644 OA
HETATM   15  O4  SIA A 603     -41.627  39.256  19.320  1.00 93.58    -0.221 OA
HETATM   16  O6  SIA A 603     -37.785  40.031  19.159  1.00 96.74    -0.325 OA
HETATM   17  O7  SIA A 603     -37.994  42.143  17.320  1.00 91.80    -0.218 OA
HETATM   18  O8  SIA A 603     -36.331  42.331  20.523  1.00 85.38    -0.218 OA
HETATM   19  O9  SIA A 603     -34.468  43.835  18.565  1.00 87.88    -0.218 OA
HETATM   20  O10 SIA A 603     -40.736  43.356  17.502  1.00 89.96    -0.271 OA
HETATM   21  C1  GAL A 604     -35.120  34.247  18.068  1.00159.95     0.303 C 
HETATM   22  C2  GAL A 604     -33.664  34.387  18.475  1.00158.93     0.244 C 
HETATM   23  C3  GAL A 604     -33.519  35.002  19.863  1.00146.87     0.220 C 
HETATM   24  C4  GAL A 604     -34.256  36.334  19.963  1.00134.70     0.215 C 
HETATM   25  C5  GAL A 604     -35.661  36.205  19.375  1.00131.58     0.180 C 
HETATM   26  C6  GAL A 604     -36.286  37.584  19.111  1.00107.43     0.178 C 
HETATM   27  O1  GAL A 604     -35.191  33.791  16.729  1.00171.21    -0.187 OA
HETATM   28  O2  GAL A 604     -33.079  33.099  18.474  1.00162.93    -0.215 OA
HETATM   29  O3  GAL A 604     -32.155  35.183  20.142  1.00139.56    -0.218 OA
HETATM   30  O4  GAL A 604     -33.551  37.343  19.274  1.00132.79    -0.218 OA
HETATM   31  O5  GAL A 604     -35.650  35.544  18.121  1.00150.70    -0.324 OA
HETATM   32  O6  GAL A 604     -37.686  37.534  19.349  1.00103.62    -0.324 OA
ENDROOT
TORSDOF 8
ENDMDL
MODEL 6
REMARK VINA RESULT:      -5.0      2.585      4.233
REMARK  0 active torsions:
REMARK  status: ('A' for Active; 'I' for Inactive)
REMARK       I    between atoms: C1_3964  and  C2_3965 
REMARK       I    between atoms: C2_3965  and  O6_3995 
REMARK       I    between atoms: C5_3968  and  N5_3975 
REMARK       I    between atoms: C6_3969  and  C7_3970 
REMARK       I    between atoms: C7_3970  and  C8_3971 
REMARK       I    between atoms: C8_3971  and  C9_3972 
REMARK       I    between atoms: C10_3973  and  N5_3975 
REMARK       I    between atoms: C5_3988  and  C6_3989 
REMARK       I    between atoms: C6_3989  and  O6_3995 
ROOT
HETATM    1  C1  SIA A 603     -35.223  39.759  20.514  1.00 97.87     0.240 C 
HETATM    2  C2  SIA A 603     -36.619  39.231  20.261  1.00108.65     0.271 C 
HETATM    3  C3  SIA A 603     -36.498  39.516  18.879  1.00101.59     0.103 C 
HETATM    4  C4  SIA A 603     -35.583  38.798  18.043  1.00 97.89     0.182 C 
HETATM    5  C5  SIA A 603     -35.813  37.327  18.009  1.00 90.71     0.166 C 
HETATM    6  C6  SIA A 603     -35.910  36.832  19.408  1.00 94.22     0.176 C 
HETATM    7  C7  SIA A 603     -36.370  35.514  19.576  1.00 95.96     0.214 C 
HETATM    8  C8  SIA A 603     -36.536  35.257  21.101  1.00 95.66     0.218 C 
HETATM    9  C9  SIA A 603     -36.669  33.764  21.427  1.00 86.65     0.218 C 
HETATM   10  C10 SIA A 603     -34.830  35.410  16.554  1.00 85.31     0.252 C 
HETATM   11  C11 SIA A 603     -33.624  34.835  15.832  1.00 84.13     0.100 C 
HETATM   12  N5  SIA A 603     -34.694  36.696  17.290  1.00 87.90    -0.235 NA
HETATM   13  O1A SIA A 603     -34.354  38.974  21.061  1.00 89.45    -0.644 OA
HETATM   14  O1B SIA A 603     -34.901  40.949  20.238  1.00 90.16    -0.644 OA
HETATM   15  O4  SIA A 603     -35.539  39.344  16.714  1.00 93.58    -0.221 OA
HETATM   16  O6  SIA A 603     -36.914  37.809  20.051  1.00 96.74    -0.325 OA
HETATM   17  O7  SIA A 603     -37.605  35.315  18.958  1.00 91.80    -0.218 OA
HETATM   18  O8  SIA A 603     -35.500  35.805  21.855  1.00 85.38    -0.218 OA
HETATM   19  O9  SIA A 603     -37.335  33.427  22.592  1.00 87.88    -0.218 OA
HETATM   20  O10 SIA A 603     -35.920  34.791  16.528  1.00 89.96    -0.271 OA
HETATM   21  C1  GAL A 604     -41.009  42.314  22.215  1.00159.95     0.303 C 
HETATM   22  C2  GAL A 604     -41.193  42.020  23.693  1.00158.93     0.244 C 
HETATM   23  C3  GAL A 604     -39.856  41.851  24.408  1.00146.87     0.220 C 
HETATM   24  C4  GAL A 604     -38.992  40.791  23.734  1.00134.70     0.215 C 
HETATM   25  C5  GAL A 604     -38.977  41.008  22.220  1.00131.58     0.180 C 
HETATM   26  C6  GAL A 604     -38.446  39.769  21.482  1.00107.43     0.178 C 
HETATM   27  O1  GAL A 604     -42.275  42.336  21.580  1.00171.21    -0.187 OA
HETATM   28  O2  GAL A 604     -41.897  43.101  24.274  1.00162.93    -0.215 OA
HETATM   29  O3  GAL A 604     -40.096  41.498  25.746  1.00139.56    -0.218 OA
HETATM   30  O4  GAL A 604     -39.482  39.498  24.016  1.00132.79    -0.218 OA
HETATM   31  O5  GAL A 604     -40.279  41.230  21.706  1.00150.70    -0.324 OA
HETATM   32  O6  GAL A 604     -37.709  40.168  20.335  1.00103.62    -0.324 OA
ENDROOT
TORSDOF 8
ENDMDL
MODEL 7
REMARK VINA RESULT:      -4.9      3.889      6.682
REMARK  0 active torsions:
REMARK  status: ('A' for Active; 'I' for Inactive)
REMARK       I    between atoms: C1_3964  and  C2_3965 
REMARK       I    between atoms: C2_3965  and  O6_3995 
REMARK       I    between atoms: C5_3968  and  N5_3975 
REMARK       I    between atoms: C6_3969  and  C7_3970 
REMARK       I    between atoms: C7_3970  and  C8_3971 
REMARK       I    between atoms: C8_3971  and  C9_3972 
REMARK       I    between atoms: C10_3973  and  N5_3975 
REMARK       I    between atoms: C5_3988  and  C6_3989 
REMARK       I    between atoms: C6_3989  and  O6_3995 
ROOT
HETATM    1  C1  SIA A 603     -36.845  37.415  18.838  1.00 97.87     0.240 C 
HETATM    2  C2  SIA A 603     -36.620  38.152  20.141  1.00108.65     0.271 C 
HETATM    3  C3  SIA A 603     -35.651  38.983  19.527  1.00101.59     0.103 C 
HETATM    4  C4  SIA A 603     -36.012  39.938  18.523  1.00 97.89     0.182 C 
HETATM    5  C5  SIA A 603     -37.008  40.950  18.973  1.00 90.71     0.166 C 
HETATM    6  C6  SIA A 603     -38.151  40.238  19.605  1.00 94.22     0.176 C 
HETATM    7  C7  SIA A 603     -39.072  41.034  20.310  1.00 95.96     0.214 C 
HETATM    8  C8  SIA A 603     -40.087  40.084  21.007  1.00 95.66     0.218 C 
HETATM    9  C9  SIA A 603     -41.340  40.826  21.489  1.00 86.65     0.218 C 
HETATM   10  C10 SIA A 603     -37.926  43.134  17.904  1.00 85.31     0.252 C 
HETATM   11  C11 SIA A 603     -38.345  43.870  16.643  1.00 84.13     0.100 C 
HETATM   12  N5  SIA A 603     -37.441  41.732  17.803  1.00 87.90    -0.235 NA
HETATM   13  O1A SIA A 603     -38.038  37.387  18.341  1.00 89.45    -0.644 OA
HETATM   14  O1B SIA A 603     -35.910  36.804  18.247  1.00 90.16    -0.644 OA
HETATM   15  O4  SIA A 603     -34.854  40.572  17.954  1.00 93.58    -0.221 OA
HETATM   16  O6  SIA A 603     -37.456  39.272  20.585  1.00 96.74    -0.325 OA
HETATM   17  O7  SIA A 603     -38.446  41.806  21.288  1.00 91.80    -0.218 OA
HETATM   18  O8  SIA A 603     -40.465  39.013  20.199  1.00 85.38    -0.218 OA
HETATM   19  O9  SIA A 603     -42.038  40.270  22.547  1.00 87.88    -0.218 OA
HETATM   20  O10 SIA A 603     -38.003  43.715  19.012  1.00 89.96    -0.271 OA
HETATM   21  C1  GAL A 604     -33.971  35.340  24.345  1.00159.95     0.303 C 
HETATM   22  C2  GAL A 604     -34.980  34.451  25.050  1.00158.93     0.244 C 
HETATM   23  C3  GAL A 604     -35.971  33.829  24.071  1.00146.87     0.220 C 
HETATM   24  C4  GAL A 604     -36.662  34.893  23.224  1.00134.70     0.215 C 
HETATM   25  C5  GAL A 604     -35.632  35.883  22.677  1.00131.58     0.180 C 
HETATM   26  C6  GAL A 604     -36.307  37.159  22.150  1.00107.43     0.178 C 
HETATM   27  O1  GAL A 604     -33.161  35.986  25.310  1.00171.21    -0.187 OA
HETATM   28  O2  GAL A 604     -34.274  33.421  25.714  1.00162.93    -0.215 OA
HETATM   29  O3  GAL A 604     -36.924  33.093  24.792  1.00139.56    -0.218 OA
HETATM   30  O4  GAL A 604     -37.620  35.591  23.989  1.00132.79    -0.218 OA
HETATM   31  O5  GAL A 604     -34.730  36.315  23.682  1.00150.70    -0.324 OA
HETATM   32  O6  GAL A 604     -35.597  37.649  21.021  1.00103.62    -0.324 OA
ENDROOT
TORSDOF 8
ENDMDL
MODEL 8
REMARK VINA RESULT:      -4.8      3.299      9.006
REMARK  0 active torsions:
REMARK  status: ('A' for Active; 'I' for Inactive)
REMARK       I    between atoms: C1_3964  and  C2_3965 
REMARK       I    between atoms: C2_3965  and  O6_3995 
REMARK       I    between atoms: C5_3968  and  N5_3975 
REMARK       I    between atoms: C6_3969  and  C7_3970 
REMARK       I    between atoms: C7_3970  and  C8_3971 
REMARK       I    between atoms: C8_3971  and  C9_3972 
REMARK       I    between atoms: C10_3973  and  N5_3975 
REMARK       I    between atoms: C5_3988  and  C6_3989 
REMARK       I    between atoms: C6_3989  and  O6_3995 
ROOT
HETATM    1  C1  SIA A 603     -41.285  38.755  20.127  1.00 97.87     0.240 C 
HETATM    2  C2  SIA A 603     -39.836  39.026  20.475  1.00108.65     0.271 C 
HETATM    3  C3  SIA A 603     -39.971  40.377  20.072  1.00101.59     0.103 C 
HETATM    4  C4  SIA A 603     -40.791  41.298  20.800  1.00 97.89     0.182 C 
HETATM    5  C5  SIA A 603     -40.402  41.466  22.228  1.00 90.71     0.166 C 
HETATM    6  C6  SIA A 603     -40.268  40.118  22.842  1.00 94.22     0.176 C 
HETATM    7  C7  SIA A 603     -39.668  40.065  24.113  1.00 95.96     0.214 C 
HETATM    8  C8  SIA A 603     -39.494  38.569  24.497  1.00 95.66     0.218 C 
HETATM    9  C9  SIA A 603     -39.202  38.382  25.991  1.00 86.65     0.218 C 
HETATM   10  C10 SIA A 603     -41.151  43.117  24.090  1.00 85.31     0.252 C 
HETATM   11  C11 SIA A 603     -42.278  43.917  24.720  1.00 84.13     0.100 C 
HETATM   12  N5  SIA A 603     -41.437  42.266  22.904  1.00 87.90    -0.235 NA
HETATM   13  O1A SIA A 603     -42.069  38.305  21.050  1.00 89.45    -0.644 OA
HETATM   14  O1B SIA A 603     -41.732  38.925  18.957  1.00 90.16    -0.644 OA
HETATM   15  O4  SIA A 603     -40.880  42.570  20.137  1.00 93.58    -0.221 OA
HETATM   16  O6  SIA A 603     -39.385  39.363  21.830  1.00 96.74    -0.325 OA
HETATM   17  O7  SIA A 603     -38.412  40.671  24.117  1.00 91.80    -0.218 OA
HETATM   18  O8  SIA A 603     -40.593  37.789  24.139  1.00 85.38    -0.218 OA
HETATM   19  O9  SIA A 603     -38.517  37.239  26.365  1.00 87.88    -0.218 OA
HETATM   20  O10 SIA A 603     -40.000  43.177  24.583  1.00 89.96    -0.271 OA
HETATM   21  C1  GAL A 604     -35.834  36.691  17.140  1.00159.95     0.303 C 
HETATM   22  C2  GAL A 604     -35.637  35.244  17.553  1.00158.93     0.244 C 
HETATM   23  C3  GAL A 604     -36.955  34.578  17.933  1.00146.87     0.220 C 
HETATM   24  C4  GAL A 604     -37.690  35.369  19.010  1.00134.70     0.215 C 
HETATM   25  C5  GAL A 604     -37.711  36.855  18.651  1.00131.58     0.180 C 
HETATM   26  C6  GAL A 604     -38.094  37.719  19.864  1.00107.43     0.178 C 
HETATM   27  O1  GAL A 604     -34.570  37.292  16.920  1.00171.21    -0.187 OA
HETATM   28  O2  GAL A 604     -35.062  34.547  16.464  1.00162.93    -0.215 OA
HETATM   29  O3  GAL A 604     -36.694  33.274  18.386  1.00139.56    -0.218 OA
HETATM   30  O4  GAL A 604     -37.065  35.199  20.264  1.00132.79    -0.218 OA
HETATM   31  O5  GAL A 604     -36.434  37.317  18.241  1.00150.70    -0.324 OA
HETATM   32  O6  GAL A 604     -38.856  38.839  19.437  1.00103.62    -0.324 OA
ENDROOT
TORSDOF 8
ENDMDL
MODEL 9
REMARK VINA RESULT:      -4.8      4.009      8.650
REMARK  0 active torsions:
REMARK  status: ('A' for Active; 'I' for Inactive)
REMARK       I    between atoms: C1_3964  and  C2_3965 
REMARK       I    between atoms: C2_3965  and  O6_3995 
REMARK       I    between atoms: C5_3968  and  N5_3975 
REMARK       I    between atoms: C6_3969  and  C7_3970 
REMARK       I    between atoms: C7_3970  and  C8_3971 
REMARK       I    between atoms: C8_3971  and  C9_3972 
REMARK       I    between atoms: C10_3973  and  N5_3975 
REMARK       I    between atoms: C5_3988  and  C6_3989 
REMARK       I    between atoms: C6_3989  and  O6_3995 
ROOT
HETATM    1  C1  SIA A 603     -36.596  39.911  22.005  1.00 97.87     0.240 C 
HETATM    2  C2  SIA A 603     -37.631  39.373  21.039  1.00108.65     0.271 C 
HETATM    3  C3  SIA A 603     -38.527  39.124  22.108  1.00101.59     0.103 C 
HETATM    4  C4  SIA A 603     -39.117  40.194  22.855  1.00 97.89     0.182 C 
HETATM    5  C5  SIA A 603     -39.915  41.146  22.033  1.00 90.71     0.166 C 
HETATM    6  C6  SIA A 603     -39.091  41.569  20.869  1.00 94.22     0.176 C 
HETATM    7  C7  SIA A 603     -39.760  42.271  19.850  1.00 95.96     0.214 C 
HETATM    8  C8  SIA A 603     -38.759  42.481  18.679  1.00 95.66     0.218 C 
HETATM    9  C9  SIA A 603     -39.244  43.542  17.683  1.00 86.65     0.218 C 
HETATM   10  C10 SIA A 603     -41.508  43.109  22.635  1.00 85.31     0.252 C 
HETATM   11  C11 SIA A 603     -41.820  44.272  23.561  1.00 84.13     0.100 C 
HETATM   12  N5  SIA A 603     -40.287  42.294  22.876  1.00 87.90    -0.235 NA
HETATM   13  O1A SIA A 603     -36.158  41.115  21.834  1.00 89.45    -0.644 OA
HETATM   14  O1B SIA A 603     -36.130  39.206  22.943  1.00 90.16    -0.644 OA
HETATM   15  O4  SIA A 603     -39.885  39.704  23.967  1.00 93.58    -0.221 OA
HETATM   16  O6  SIA A 603     -38.571  40.230  20.309  1.00 96.74    -0.325 OA
HETATM   17  O7  SIA A 603     -40.859  41.560  19.369  1.00 91.80    -0.218 OA
HETATM   18  O8  SIA A 603     -37.477  42.810  19.118  1.00 85.38    -0.218 OA
HETATM   19  O9  SIA A 603     -38.773  43.454  16.385  1.00 87.88    -0.218 OA
HETATM   20  O10 SIA A 603     -42.276  42.859  21.677  1.00 89.96    -0.271 OA
HETATM   21  C1  GAL A 604     -36.569  34.342  18.557  1.00159.95     0.303 C 
HETATM   22  C2  GAL A 604     -35.628  34.564  17.387  1.00158.93     0.244 C 
HETATM   23  C3  GAL A 604     -34.578  35.625  17.696  1.00146.87     0.220 C 
HETATM   24  C4  GAL A 604     -35.220  36.932  18.149  1.00134.70     0.215 C 
HETATM   25  C5  GAL A 604     -36.295  36.654  19.200  1.00131.58     0.180 C 
HETATM   26  C6  GAL A 604     -37.212  37.872  19.399  1.00107.43     0.178 C 
HETATM   27  O1  GAL A 604     -37.594  33.444  18.172  1.00171.21    -0.187 OA
HETATM   28  O2  GAL A 604     -34.981  33.339  17.101  1.00162.93    -0.215 OA
HETATM   29  O3  GAL A 604     -33.798  35.843  16.549  1.00139.56    -0.218 OA
HETATM   30  O4  GAL A 604     -35.801  37.605  17.053  1.00132.79    -0.218 OA
HETATM   31  O5  GAL A 604     -37.151  35.592  18.813  1.00150.70    -0.324 OA
HETATM   32  O6  GAL A 604     -37.609  37.961  20.760  1.00103.62    -0.324 OA
ENDROOT
TORSDOF 8
ENDMDL
