MODEL 1
REMARK VINA RESULT:      -6.4      0.000      0.000
REMARK  0 active torsions:
REMARK  status: ('A' for Active; 'I' for Inactive)
REMARK       I    between atoms: C1_1  and  C2_4 
REMARK       I    between atoms: C2_4  and  O3_21 
REMARK       I    between atoms: C5_8  and  N5_11 
REMARK       I    between atoms: C10_12  and  N5_11 
REMARK       I    between atoms: C6_9  and  C7_15 
REMARK       I    between atoms: C7_15  and  C8_17 
REMARK       I    between atoms: C8_17  and  C9_19 
REMARK       I    between atoms: C1_24  and  O3_30 
REMARK       I    between atoms: C3_22  and  O3_21 
REMARK       I    between atoms: C5_27  and  C6_45 
REMARK       I    between atoms: C2_32  and  N2_39 
REMARK       I    between atoms: C7_40  and  N2_39 
REMARK       I    between atoms: C3_31  and  O3_30 
REMARK       I    between atoms: C5_36  and  C6_43 
ROOT
HETATM    1  C1  SIA C1001     -36.985  33.744  22.061  1.00 29.87     0.240 C 
HETATM    2  O1A SIA C1001     -37.422  33.022  21.167  1.00 27.54    -0.644 OA
HETATM    3  O1B SIA C1001     -36.929  33.311  23.245  1.00 32.56    -0.644 OA
HETATM    4  C2  SIA C1001     -36.509  35.149  21.733  1.00 28.70     0.271 C 
HETATM    5  C3  SIA C1001     -35.005  35.304  22.126  1.00 26.68     0.103 C 
HETATM    6  C4  SIA C1001     -34.134  34.373  21.313  1.00 27.13     0.182 C 
HETATM    7  O4  SIA C1001     -32.750  34.462  21.648  1.00 27.74    -0.221 OA
HETATM    8  C5  SIA C1001     -34.338  34.688  19.833  1.00 27.71     0.166 C 
HETATM    9  N5  SIA C1001     -33.605  33.653  19.149  1.00 25.75    -0.235 NA
HETATM   10  C6  SIA C1001     -35.842  34.607  19.463  1.00 27.96     0.176 C 
HETATM   11  O6  SIA C1001     -36.644  35.420  20.327  1.00 26.35    -0.325 OA
HETATM   12  C7  SIA C1001     -36.194  34.914  18.015  1.00 26.98     0.214 C 
HETATM   13  O7  SIA C1001     -35.471  36.059  17.601  1.00 25.74    -0.218 OA
HETATM   14  C8  SIA C1001     -37.708  35.067  17.846  1.00 27.81     0.218 C 
HETATM   15  O8  SIA C1001     -38.403  33.963  18.410  1.00 27.64    -0.218 OA
HETATM   16  C9  SIA C1001     -38.153  35.073  16.391  1.00 28.76     0.218 C 
HETATM   17  O9  SIA C1001     -39.575  35.272  16.311  1.00 25.96    -0.218 OA
HETATM   18  C10 SIA C1001     -33.002  33.880  18.002  1.00 26.15     0.252 C 
HETATM   19  O10 SIA C1001     -33.038  34.953  17.410  1.00 27.52    -0.271 OA
HETATM   20  C11 SIA C1001     -32.286  32.692  17.454  1.00 25.91     0.100 C 
HETATM   21  C1  GAL C1002     -37.851  39.485  23.624  1.00 42.56     0.270 C 
HETATM   22  C2  GAL C1002     -37.527  37.964  23.665  1.00 38.39     0.238 C 
HETATM   23  O2  GAL C1002     -36.359  37.654  24.371  1.00 35.49    -0.215 OA
HETATM   24  C3  GAL C1002     -37.298  37.355  22.285  1.00 32.50     0.186 C 
HETATM   25  O3  GAL C1002     -37.470  35.960  22.438  1.00 29.89    -0.324 OA
HETATM   26  C4  GAL C1002     -38.263  37.899  21.224  1.00 32.62     0.211 C 
HETATM   27  O4  GAL C1002     -39.565  37.414  21.449  1.00 31.61    -0.218 OA
HETATM   28  C5  GAL C1002     -38.382  39.404  21.259  1.00 32.94     0.184 C 
HETATM   29  O5  GAL C1002     -38.768  39.727  22.571  1.00 37.12    -0.326 OA
HETATM   30  C6  GAL C1002     -39.513  39.804  20.267  1.00 32.14     0.214 C 
HETATM   31  O6  GAL C1002     -39.780  41.179  20.359  1.00 30.07    -0.218 OA
HETATM   32  C1  NAG C1003     -37.718  43.616  26.053  1.00 69.25     0.294 C 
HETATM   33  O1  NAG C1003     -36.957  43.890  27.185  1.00 64.12    -0.188 OA
HETATM   34  C2  NAG C1003     -37.436  42.157  25.677  1.00 65.91     0.195 C 
HETATM   35  N2  NAG C1003     -36.328  42.149  24.750  1.00 74.96    -0.232 NA
HETATM   36  C3  NAG C1003     -38.521  41.455  24.867  1.00 60.49     0.178 C 
HETATM   37  O3  NAG C1003     -38.368  40.020  24.889  1.00 50.89    -0.327 OA
HETATM   38  C4  NAG C1003     -39.925  41.987  25.172  1.00 61.41     0.211 C 
HETATM   39  O4  NAG C1003     -40.753  41.493  24.131  1.00 69.67    -0.218 OA
HETATM   40  C5  NAG C1003     -39.919  43.536  25.269  1.00 68.17     0.184 C 
HETATM   41  O5  NAG C1003     -39.082  43.910  26.347  1.00 70.44    -0.325 OA
HETATM   42  C6  NAG C1003     -41.281  44.209  25.447  1.00 66.34     0.214 C 
HETATM   43  O6  NAG C1003     -41.784  43.730  26.667  1.00 64.10    -0.218 OA
HETATM   44  C7  NAG C1003     -35.151  41.585  25.000  1.00 80.23     0.252 C 
HETATM   45  O7  NAG C1003     -34.925  41.049  26.087  1.00 82.55    -0.271 OA
HETATM   46  C8  NAG C1003     -34.109  41.652  23.897  1.00 75.65     0.100 C 
ENDROOT
TORSDOF 12
ENDMDL
MODEL 2
REMARK VINA RESULT:      -6.2      2.754      9.793
REMARK  0 active torsions:
REMARK  status: ('A' for Active; 'I' for Inactive)
REMARK       I    between atoms: C1_1  and  C2_4 
REMARK       I    between atoms: C2_4  and  O3_21 
REMARK       I    between atoms: C5_8  and  N5_11 
REMARK       I    between atoms: C10_12  and  N5_11 
REMARK       I    between atoms: C6_9  and  C7_15 
REMARK       I    between atoms: C7_15  and  C8_17 
REMARK       I    between atoms: C8_17  and  C9_19 
REMARK       I    between atoms: C1_24  and  O3_30 
REMARK       I    between atoms: C3_22  and  O3_21 
REMARK       I    between atoms: C5_27  and  C6_45 
REMARK       I    between atoms: C2_32  and  N2_39 
REMARK       I    between atoms: C7_40  and  N2_39 
REMARK       I    between atoms: C3_31  and  O3_30 
REMARK       I    between atoms: C5_36  and  C6_43 
ROOT
HETATM    1  C1  SIA C1001     -41.612  39.120  21.543  1.00 29.87     0.240 C 
HETATM    2  O1A SIA C1001     -42.278  38.781  22.519  1.00 27.54    -0.644 OA
HETATM    3  O1B SIA C1001     -42.162  39.215  20.411  1.00 32.56    -0.644 OA
HETATM    4  C2  SIA C1001     -40.133  39.429  21.707  1.00 28.70     0.271 C 
HETATM    5  C3  SIA C1001     -39.848  40.900  21.265  1.00 26.68     0.103 C 
HETATM    6  C4  SIA C1001     -40.577  41.884  22.153  1.00 27.13     0.182 C 
HETATM    7  O4  SIA C1001     -40.363  43.244  21.779  1.00 27.74    -0.221 OA
HETATM    8  C5  SIA C1001     -40.128  41.659  23.595  1.00 27.71     0.166 C 
HETATM    9  N5  SIA C1001     -40.989  42.517  24.369  1.00 25.75    -0.235 NA
HETATM   10  C6  SIA C1001     -40.343  40.179  24.006  1.00 27.96     0.176 C 
HETATM   11  O6  SIA C1001     -39.729  39.278  23.079  1.00 26.35    -0.325 OA
HETATM   12  C7  SIA C1001     -39.923  39.808  25.420  1.00 26.98     0.214 C 
HETATM   13  O7  SIA C1001     -38.662  40.394  25.693  1.00 25.74    -0.218 OA
HETATM   14  C8  SIA C1001     -39.930  38.289  25.607  1.00 27.81     0.218 C 
HETATM   15  O8  SIA C1001     -41.163  37.724  25.181  1.00 27.64    -0.218 OA
HETATM   16  C9  SIA C1001     -39.817  37.860  27.063  1.00 28.76     0.218 C 
HETATM   17  O9  SIA C1001     -39.778  36.426  27.154  1.00 25.96    -0.218 OA
HETATM   18  C10 SIA C1001     -40.570  43.100  25.471  1.00 26.15     0.252 C 
HETATM   19  O10 SIA C1001     -39.449  42.943  25.945  1.00 27.52    -0.271 OA
HETATM   20  C11 SIA C1001     -41.599  43.958  26.126  1.00 25.91     0.100 C 
HETATM   21  C1  GAL C1002     -36.217  37.563  19.393  1.00 42.56     0.270 C 
HETATM   22  C2  GAL C1002     -37.685  38.064  19.508  1.00 38.39     0.238 C 
HETATM   23  O2  GAL C1002     -37.932  39.254  18.813  1.00 35.49    -0.215 OA
HETATM   24  C3  GAL C1002     -38.109  38.378  20.940  1.00 32.50     0.186 C 
HETATM   25  O3  GAL C1002     -39.523  38.372  20.941  1.00 29.89    -0.324 OA
HETATM   26  C4  GAL C1002     -37.568  37.366  21.958  1.00 32.62     0.211 C 
HETATM   27  O4  GAL C1002     -38.224  36.129  21.817  1.00 31.61    -0.218 OA
HETATM   28  C5  GAL C1002     -36.101  37.070  21.765  1.00 32.94     0.184 C 
HETATM   29  O5  GAL C1002     -35.971  36.634  20.435  1.00 37.12    -0.326 OA
HETATM   30  C6  GAL C1002     -35.730  35.910  22.734  1.00 32.14     0.214 C 
HETATM   31  O6  GAL C1002     -34.414  35.480  22.502  1.00 30.07    -0.218 OA
HETATM   32  C1  NAG C1003     -32.390  37.180  16.533  1.00 69.25     0.294 C 
HETATM   33  O1  NAG C1003     -32.154  37.891  15.360  1.00 64.12    -0.188 OA
HETATM   34  C2  NAG C1003     -33.756  37.636  17.056  1.00 65.91     0.195 C 
HETATM   35  N2  NAG C1003     -33.533  38.748  17.953  1.00 74.96    -0.232 NA
HETATM   36  C3  NAG C1003     -34.487  36.651  17.962  1.00 60.49     0.178 C 
HETATM   37  O3  NAG C1003     -35.888  36.973  18.091  1.00 50.89    -0.327 OA
HETATM   38  C4  NAG C1003     -34.159  35.191  17.634  1.00 61.41     0.211 C 
HETATM   39  O4  NAG C1003     -34.629  34.438  18.741  1.00 69.67    -0.218 OA
HETATM   40  C5  NAG C1003     -32.640  35.012  17.371  1.00 68.17     0.184 C 
HETATM   41  O5  NAG C1003     -32.291  35.788  16.240  1.00 70.44    -0.325 OA
HETATM   42  C6  NAG C1003     -32.154  33.578  17.153  1.00 66.34     0.214 C 
HETATM   43  O6  NAG C1003     -32.820  33.123  16.004  1.00 64.10    -0.218 OA
HETATM   44  C7  NAG C1003     -33.980  39.980  17.738  1.00 80.23     0.252 C 
HETATM   45  O7  NAG C1003     -34.601  40.257  16.709  1.00 82.55    -0.271 OA
HETATM   46  C8  NAG C1003     -33.671  41.019  18.803  1.00 75.65     0.100 C 
ENDROOT
TORSDOF 12
ENDMDL
MODEL 3
REMARK VINA RESULT:      -5.6      2.356      9.673
REMARK  0 active torsions:
REMARK  status: ('A' for Active; 'I' for Inactive)
REMARK       I    between atoms: C1_1  and  C2_4 
REMARK       I    between atoms: C2_4  and  O3_21 
REMARK       I    between atoms: C5_8  and  N5_11 
REMARK       I    between atoms: C10_12  and  N5_11 
REMARK       I    between atoms: C6_9  and  C7_15 
REMARK       I    between atoms: C7_15  and  C8_17 
REMARK       I    between atoms: C8_17  and  C9_19 
REMARK       I    between atoms: C1_24  and  O3_30 
REMARK       I    between atoms: C3_22  and  O3_21 
REMARK       I    between atoms: C5_27  and  C6_45 
REMARK       I    between atoms: C2_32  and  N2_39 
REMARK       I    between atoms: C7_40  and  N2_39 
REMARK       I    between atoms: C3_31  and  O3_30 
REMARK       I    between atoms: C5_36  and  C6_43 
ROOT
HETATM    1  C1  SIA C1001     -36.618  42.808  21.646  1.00 29.87     0.240 C 
HETATM    2  O1A SIA C1001     -37.433  43.636  21.245  1.00 27.54    -0.644 OA
HETATM    3  O1B SIA C1001     -35.414  43.145  21.818  1.00 32.56    -0.644 OA
HETATM    4  C2  SIA C1001     -37.067  41.386  21.939  1.00 28.70     0.271 C 
HETATM    5  C3  SIA C1001     -36.782  41.038  23.435  1.00 26.68     0.103 C 
HETATM    6  C4  SIA C1001     -37.587  41.924  24.360  1.00 27.13     0.182 C 
HETATM    7  O4  SIA C1001     -37.347  41.658  25.741  1.00 27.74    -0.221 OA
HETATM    8  C5  SIA C1001     -39.068  41.740  24.038  1.00 27.71     0.166 C 
HETATM    9  N5  SIA C1001     -39.729  42.734  24.845  1.00 25.75    -0.235 NA
HETATM   10  C6  SIA C1001     -39.335  42.013  22.534  1.00 27.96     0.176 C 
HETATM   11  O6  SIA C1001     -38.476  41.234  21.695  1.00 26.35    -0.325 OA
HETATM   12  C7  SIA C1001     -40.774  41.852  22.069  1.00 26.98     0.214 C 
HETATM   13  O7  SIA C1001     -41.308  40.666  22.632  1.00 25.74    -0.218 OA
HETATM   14  C8  SIA C1001     -40.856  41.879  20.540  1.00 27.81     0.218 C 
HETATM   15  O8  SIA C1001     -40.177  43.010  20.009  1.00 27.64    -0.218 OA
HETATM   16  C9  SIA C1001     -42.277  42.028  20.016  1.00 28.76     0.218 C 
HETATM   17  O9  SIA C1001     -42.278  41.993  18.579  1.00 25.96    -0.218 OA
HETATM   18  C10 SIA C1001     -40.924  42.526  25.352  1.00 26.15     0.252 C 
HETATM   19  O10 SIA C1001     -41.581  41.508  25.161  1.00 27.52    -0.271 OA
HETATM   20  C11 SIA C1001     -41.438  43.664  26.168  1.00 25.91     0.100 C 
HETATM   21  C1  GAL C1002     -35.380  37.100  20.218  1.00 42.56     0.270 C 
HETATM   22  C2  GAL C1002     -35.262  38.569  20.715  1.00 38.39     0.238 C 
HETATM   23  O2  GAL C1002     -34.613  38.696  21.949  1.00 35.49    -0.215 OA
HETATM   24  C3  GAL C1002     -36.611  39.247  20.934  1.00 32.50     0.186 C 
HETATM   25  O3  GAL C1002     -36.356  40.637  20.933  1.00 29.89    -0.324 OA
HETATM   26  C4  GAL C1002     -37.641  38.890  19.855  1.00 32.62     0.211 C 
HETATM   27  O4  GAL C1002     -37.301  39.498  18.632  1.00 31.61    -0.218 OA
HETATM   28  C5  GAL C1002     -37.697  37.409  19.567  1.00 32.94     0.184 C 
HETATM   29  O5  GAL C1002     -36.386  37.037  19.221  1.00 37.12    -0.326 OA
HETATM   30  C6  GAL C1002     -38.638  37.209  18.344  1.00 32.14     0.214 C 
HETATM   31  O6  GAL C1002     -38.619  35.869  17.926  1.00 30.07    -0.218 OA
HETATM   32  C1  NAG C1003     -33.240  32.816  20.013  1.00 69.25     0.294 C 
HETATM   33  O1  NAG C1003     -32.179  32.379  20.800  1.00 64.12    -0.188 OA
HETATM   34  C2  NAG C1003     -33.537  34.258  20.438  1.00 65.91     0.195 C 
HETATM   35  N2  NAG C1003     -34.530  34.210  21.487  1.00 74.96    -0.232 NA
HETATM   36  C3  NAG C1003     -34.229  35.131  19.397  1.00 60.49     0.178 C 
HETATM   37  O3  NAG C1003     -34.123  36.536  19.715  1.00 50.89    -0.327 OA
HETATM   38  C4  NAG C1003     -33.869  34.737  17.961  1.00 61.41     0.211 C 
HETATM   39  O4  NAG C1003     -34.821  35.393  17.138  1.00 69.67    -0.218 OA
HETATM   40  C5  NAG C1003     -33.874  33.194  17.795  1.00 68.17     0.184 C 
HETATM   41  O5  NAG C1003     -32.879  32.654  18.643  1.00 70.44    -0.325 OA
HETATM   42  C6  NAG C1003     -33.653  32.664  16.377  1.00 66.34     0.214 C 
HETATM   43  O6  NAG C1003     -32.375  33.108  16.001  1.00 64.10    -0.218 OA
HETATM   44  C7  NAG C1003     -34.320  34.622  22.732  1.00 80.23     0.252 C 
HETATM   45  O7  NAG C1003     -33.217  35.049  23.079  1.00 82.55    -0.271 OA
HETATM   46  C8  NAG C1003     -35.489  34.520  23.696  1.00 75.65     0.100 C 
ENDROOT
TORSDOF 12
ENDMDL
MODEL 4
REMARK VINA RESULT:      -3.9      4.044      7.308
REMARK  0 active torsions:
REMARK  status: ('A' for Active; 'I' for Inactive)
REMARK       I    between atoms: C1_1  and  C2_4 
REMARK       I    between atoms: C2_4  and  O3_21 
REMARK       I    between atoms: C5_8  and  N5_11 
REMARK       I    between atoms: C10_12  and  N5_11 
REMARK       I    between atoms: C6_9  and  C7_15 
REMARK       I    between atoms: C7_15  and  C8_17 
REMARK       I    between atoms: C8_17  and  C9_19 
REMARK       I    between atoms: C1_24  and  O3_30 
REMARK       I    between atoms: C3_22  and  O3_21 
REMARK       I    between atoms: C5_27  and  C6_45 
REMARK       I    between atoms: C2_32  and  N2_39 
REMARK       I    between atoms: C7_40  and  N2_39 
REMARK       I    between atoms: C3_31  and  O3_30 
REMARK       I    between atoms: C5_36  and  C6_43 
ROOT
HETATM    1  C1  SIA C1001     -36.274  38.923  17.580  1.00 29.87     0.240 C 
HETATM    2  O1A SIA C1001     -36.798  39.858  16.978  1.00 27.54    -0.644 OA
HETATM    3  O1B SIA C1001     -36.053  37.835  16.979  1.00 32.56    -0.644 OA
HETATM    4  C2  SIA C1001     -35.892  39.085  19.042  1.00 28.70     0.271 C 
HETATM    5  C3  SIA C1001     -34.356  38.857  19.215  1.00 26.68     0.103 C 
HETATM    6  C4  SIA C1001     -33.565  39.905  18.463  1.00 27.13     0.182 C 
HETATM    7  O4  SIA C1001     -32.154  39.730  18.574  1.00 27.74    -0.221 OA
HETATM    8  C5  SIA C1001     -33.967  41.282  18.985  1.00 27.71     0.166 C 
HETATM    9  N5  SIA C1001     -33.294  42.202  18.104  1.00 25.75    -0.235 NA
HETATM   10  C6  SIA C1001     -35.503  41.475  18.881  1.00 27.96     0.176 C 
HETATM   11  O6  SIA C1001     -36.214  40.405  19.512  1.00 26.35    -0.325 OA
HETATM   12  C7  SIA C1001     -36.047  42.804  19.382  1.00 26.98     0.214 C 
HETATM   13  O7  SIA C1001     -35.422  43.121  20.613  1.00 25.74    -0.218 OA
HETATM   14  C8  SIA C1001     -37.575  42.763  19.479  1.00 27.81     0.218 C 
HETATM   15  O8  SIA C1001     -38.155  42.296  18.267  1.00 27.64    -0.218 OA
HETATM   16  C9  SIA C1001     -38.203  44.135  19.678  1.00 28.76     0.218 C 
HETATM   17  O9  SIA C1001     -39.629  44.010  19.812  1.00 25.96    -0.218 OA
HETATM   18  C10 SIA C1001     -32.851  43.364  18.530  1.00 26.15     0.252 C 
HETATM   19  O10 SIA C1001     -32.997  43.774  19.677  1.00 27.52    -0.271 OA
HETATM   20  C11 SIA C1001     -32.171  44.173  17.477  1.00 25.91     0.100 C 
HETATM   21  C1  GAL C1002     -37.125  36.395  22.969  1.00 42.56     0.270 C 
HETATM   22  C2  GAL C1002     -36.748  36.631  21.479  1.00 38.39     0.238 C 
HETATM   23  O2  GAL C1002     -35.489  36.128  21.128  1.00 35.49    -0.215 OA
HETATM   24  C3  GAL C1002     -36.677  38.106  21.095  1.00 32.50     0.186 C 
HETATM   25  O3  GAL C1002     -36.781  38.151  19.686  1.00 29.89    -0.324 OA
HETATM   26  C4  GAL C1002     -37.788  38.944  21.741  1.00 32.62     0.211 C 
HETATM   27  O4  GAL C1002     -39.033  38.641  21.159  1.00 31.61    -0.218 OA
HETATM   28  C5  GAL C1002     -37.951  38.663  23.215  1.00 32.94     0.184 C 
HETATM   29  O5  GAL C1002     -38.177  37.279  23.317  1.00 37.12    -0.326 OA
HETATM   30  C6  GAL C1002     -39.212  39.436  23.698  1.00 32.14     0.214 C 
HETATM   31  O6  GAL C1002     -39.512  39.101  25.028  1.00 30.07    -0.218 OA
HETATM   32  C1  NAG C1003     -36.821  33.391  26.692  1.00 69.25     0.294 C 
HETATM   33  O1  NAG C1003     -35.931  32.330  26.833  1.00 64.12    -0.188 OA
HETATM   34  C2  NAG C1003     -36.541  34.019  25.322  1.00 65.91     0.195 C 
HETATM   35  N2  NAG C1003     -35.560  35.063  25.511  1.00 74.96    -0.232 NA
HETATM   36  C3  NAG C1003     -37.697  34.791  24.693  1.00 60.49     0.178 C 
HETATM   37  O3  NAG C1003     -37.493  35.010  23.281  1.00 50.89    -0.327 OA
HETATM   38  C4  NAG C1003     -39.067  34.238  25.099  1.00 61.41     0.211 C 
HETATM   39  O4  NAG C1003     -40.004  35.236  24.724  1.00 69.67    -0.218 OA
HETATM   40  C5  NAG C1003     -39.100  33.904  26.614  1.00 68.17     0.184 C 
HETATM   41  O5  NAG C1003     -38.145  32.891  26.866  1.00 70.44    -0.325 OA
HETATM   42  C6  NAG C1003     -40.450  33.460  27.181  1.00 66.34     0.214 C 
HETATM   43  O6  NAG C1003     -40.777  32.278  26.498  1.00 64.10    -0.218 OA
HETATM   44  C7  NAG C1003     -34.343  35.049  24.978  1.00 80.23     0.252 C 
HETATM   45  O7  NAG C1003     -33.962  34.093  24.299  1.00 82.55    -0.271 OA
HETATM   46  C8  NAG C1003     -33.453  36.246  25.264  1.00 75.65     0.100 C 
ENDROOT
TORSDOF 12
ENDMDL
