MODEL 1
REMARK VINA RESULT:      -6.3      0.000      0.000
REMARK  0 active torsions:
REMARK  status: ('A' for Active; 'I' for Inactive)
REMARK       I    between atoms: C1_3964  and  C2_3965 
REMARK       I    between atoms: C2_3965  and  O6_3995 
REMARK       I    between atoms: C5_3968  and  N5_3975 
REMARK       I    between atoms: C6_3969  and  C7_3970 
REMARK       I    between atoms: C7_3970  and  C8_3971 
REMARK       I    between atoms: C8_3971  and  C9_3972 
REMARK       I    between atoms: C10_3973  and  N5_3975 
REMARK       I    between atoms: C5_3988  and  C6_3989 
REMARK       I    between atoms: C6_3989  and  O6_3995 
ROOT
HETATM    1  C1  SIA A 603     -38.581  38.153  21.319  1.00 97.87     0.240 C 
HETATM    2  C2  SIA A 603     -38.008  38.223  19.920  1.00108.65     0.271 C 
HETATM    3  C3  SIA A 603     -39.301  38.068  19.361  1.00101.59     0.103 C 
HETATM    4  C4  SIA A 603     -40.299  39.086  19.493  1.00 97.89     0.182 C 
HETATM    5  C5  SIA A 603     -39.904  40.407  18.929  1.00 90.71     0.166 C 
HETATM    6  C6  SIA A 603     -38.564  40.766  19.465  1.00 94.22     0.176 C 
HETATM    7  C7  SIA A 603     -37.917  41.857  18.857  1.00 95.96     0.214 C 
HETATM    8  C8  SIA A 603     -36.488  41.962  19.460  1.00 95.66     0.218 C 
HETATM    9  C9  SIA A 603     -35.829  43.314  19.159  1.00 86.65     0.218 C 
HETATM   10  C10 SIA A 603     -41.205  42.615  18.499  1.00 85.31     0.252 C 
HETATM   11  C11 SIA A 603     -42.278  43.585  18.962  1.00 84.13     0.100 C 
HETATM   12  N5  SIA A 603     -40.921  41.401  19.310  1.00 87.90    -0.235 NA
HETATM   13  O1A SIA A 603     -38.369  39.143  22.124  1.00 89.45    -0.644 OA
HETATM   14  O1B SIA A 603     -39.225  37.146  21.726  1.00 90.16    -0.644 OA
HETATM   15  O4  SIA A 603     -41.566  38.658  18.964  1.00 93.58    -0.221 OA
HETATM   16  O6  SIA A 603     -37.740  39.486  19.222  1.00 96.74    -0.325 OA
HETATM   17  O7  SIA A 603     -37.803  41.686  17.477  1.00 91.80    -0.218 OA
HETATM   18  O8  SIA A 603     -36.465  41.732  20.835  1.00 85.38    -0.218 OA
HETATM   19  O9  SIA A 603     -34.445  43.355  19.147  1.00 87.88    -0.218 OA
HETATM   20  O10 SIA A 603     -40.568  42.856  17.446  1.00 89.96    -0.271 OA
HETATM   21  C1  GAL A 604     -34.883  33.796  18.118  1.00159.95     0.303 C 
HETATM   22  C2  GAL A 604     -33.478  33.933  18.674  1.00158.93     0.244 C 
HETATM   23  C3  GAL A 604     -33.480  34.479  20.098  1.00146.87     0.220 C 
HETATM   24  C4  GAL A 604     -34.245  35.795  20.190  1.00134.70     0.215 C 
HETATM   25  C5  GAL A 604     -35.584  35.679  19.460  1.00131.58     0.180 C 
HETATM   26  C6  GAL A 604     -36.203  37.063  19.202  1.00107.43     0.178 C 
HETATM   27  O1  GAL A 604     -34.815  33.407  16.758  1.00171.21    -0.187 OA
HETATM   28  O2  GAL A 604     -32.874  32.653  18.668  1.00162.93    -0.215 OA
HETATM   29  O3  GAL A 604     -32.154  34.661  20.520  1.00139.56    -0.218 OA
HETATM   30  O4  GAL A 604     -33.493  36.847  19.624  1.00132.79    -0.218 OA
HETATM   31  O5  GAL A 604     -35.438  35.083  18.182  1.00150.70    -0.324 OA
HETATM   32  O6  GAL A 604     -37.618  36.984  19.298  1.00103.62    -0.324 OA
ENDROOT
TORSDOF 8
ENDMDL
MODEL 2
REMARK VINA RESULT:      -6.2      2.947      8.032
REMARK  0 active torsions:
REMARK  status: ('A' for Active; 'I' for Inactive)
REMARK       I    between atoms: C1_3964  and  C2_3965 
REMARK       I    between atoms: C2_3965  and  O6_3995 
REMARK       I    between atoms: C5_3968  and  N5_3975 
REMARK       I    between atoms: C6_3969  and  C7_3970 
REMARK       I    between atoms: C7_3970  and  C8_3971 
REMARK       I    between atoms: C8_3971  and  C9_3972 
REMARK       I    between atoms: C10_3973  and  N5_3975 
REMARK       I    between atoms: C5_3988  and  C6_3989 
REMARK       I    between atoms: C6_3989  and  O6_3995 
ROOT
HETATM    1  C1  SIA A 603     -38.075  36.024  17.368  1.00 97.87     0.240 C 
HETATM    2  C2  SIA A 603     -37.520  36.539  18.679  1.00108.65     0.271 C 
HETATM    3  C3  SIA A 603     -37.478  35.223  19.201  1.00101.59     0.103 C 
HETATM    4  C4  SIA A 603     -36.575  34.240  18.682  1.00 97.89     0.182 C 
HETATM    5  C5  SIA A 603     -35.138  34.625  18.767  1.00 90.71     0.166 C 
HETATM    6  C6  SIA A 603     -34.981  35.989  18.197  1.00 94.22     0.176 C 
HETATM    7  C7  SIA A 603     -33.742  36.620  18.415  1.00 95.96     0.214 C 
HETATM    8  C8  SIA A 603     -33.846  38.074  17.874  1.00 95.66     0.218 C 
HETATM    9  C9  SIA A 603     -32.471  38.733  17.714  1.00 86.65     0.218 C 
HETATM   10  C10 SIA A 603     -32.925  33.328  18.347  1.00 85.31     0.252 C 
HETATM   11  C11 SIA A 603     -32.184  32.284  17.531  1.00 84.13     0.100 C 
HETATM   12  N5  SIA A 603     -34.344  33.634  18.022  1.00 87.90    -0.235 NA
HETATM   13  O1A SIA A 603     -37.426  36.278  16.280  1.00 89.45    -0.644 OA
HETATM   14  O1B SIA A 603     -39.165  35.388  17.310  1.00 90.16    -0.644 OA
HETATM   15  O4  SIA A 603     -36.799  32.949  19.273  1.00 93.58    -0.221 OA
HETATM   16  O6  SIA A 603     -36.092  36.790  18.905  1.00 96.74    -0.325 OA
HETATM   17  O7  SIA A 603     -33.423  36.676  19.771  1.00 91.80    -0.218 OA
HETATM   18  O8  SIA A 603     -34.540  38.152  16.667  1.00 85.38    -0.218 OA
HETATM   19  O9  SIA A 603     -32.420  40.116  17.769  1.00 87.88    -0.218 OA
HETATM   20  O10 SIA A 603     -32.330  33.922  19.277  1.00 89.96    -0.271 OA
HETATM   21  C1  GAL A 604     -41.026  39.544  22.038  1.00159.95     0.303 C 
HETATM   22  C2  GAL A 604     -41.084  40.972  21.529  1.00158.93     0.244 C 
HETATM   23  C3  GAL A 604     -41.067  41.034  20.006  1.00146.87     0.220 C 
HETATM   24  C4  GAL A 604     -39.869  40.287  19.429  1.00134.70     0.215 C 
HETATM   25  C5  GAL A 604     -39.731  38.918  20.097  1.00131.58     0.180 C 
HETATM   26  C6  GAL A 604     -38.348  38.302  19.831  1.00107.43     0.178 C 
HETATM   27  O1  GAL A 604     -40.918  39.552  23.450  1.00171.21    -0.187 OA
HETATM   28  O2  GAL A 604     -42.278  41.563  22.005  1.00162.93    -0.215 OA
HETATM   29  O3  GAL A 604     -41.035  42.379  19.603  1.00139.56    -0.218 OA
HETATM   30  O4  GAL A 604     -38.683  41.024  19.626  1.00132.79    -0.218 OA
HETATM   31  O5  GAL A 604     -39.845  39.005  21.508  1.00150.70    -0.324 OA
HETATM   32  O6  GAL A 604     -38.463  36.891  19.709  1.00103.62    -0.324 OA
ENDROOT
TORSDOF 8
ENDMDL
MODEL 3
REMARK VINA RESULT:      -5.9      2.548      4.369
REMARK  0 active torsions:
REMARK  status: ('A' for Active; 'I' for Inactive)
REMARK       I    between atoms: C1_3964  and  C2_3965 
REMARK       I    between atoms: C2_3965  and  O6_3995 
REMARK       I    between atoms: C5_3968  and  N5_3975 
REMARK       I    between atoms: C6_3969  and  C7_3970 
REMARK       I    between atoms: C7_3970  and  C8_3971 
REMARK       I    between atoms: C8_3971  and  C9_3972 
REMARK       I    between atoms: C10_3973  and  N5_3975 
REMARK       I    between atoms: C5_3988  and  C6_3989 
REMARK       I    between atoms: C6_3989  and  O6_3995 
ROOT
HETATM    1  C1  SIA A 603     -38.796  37.313  18.588  1.00 97.87     0.240 C 
HETATM    2  C2  SIA A 603     -38.141  37.890  19.825  1.00108.65     0.271 C 
HETATM    3  C3  SIA A 603     -37.626  38.973  19.071  1.00101.59     0.103 C 
HETATM    4  C4  SIA A 603     -38.487  39.969  18.508  1.00 97.89     0.182 C 
HETATM    5  C5  SIA A 603     -39.322  40.692  19.507  1.00 90.71     0.166 C 
HETATM    6  C6  SIA A 603     -40.000  39.688  20.370  1.00 94.22     0.176 C 
HETATM    7  C7  SIA A 603     -40.634  40.180  21.525  1.00 95.96     0.214 C 
HETATM    8  C8  SIA A 603     -41.140  38.961  22.347  1.00 95.66     0.218 C 
HETATM    9  C9  SIA A 603     -42.159  39.367  23.419  1.00 86.65     0.218 C 
HETATM   10  C10 SIA A 603     -40.862  42.780  19.357  1.00 85.31     0.252 C 
HETATM   11  C11 SIA A 603     -41.855  43.587  18.539  1.00 84.13     0.100 C 
HETATM   12  N5  SIA A 603     -40.295  41.528  18.786  1.00 87.90    -0.235 NA
HETATM   13  O1A SIA A 603     -40.074  37.119  18.598  1.00 89.45    -0.644 OA
HETATM   14  O1B SIA A 603     -38.124  36.986  17.569  1.00 90.16    -0.644 OA
HETATM   15  O4  SIA A 603     -37.759  40.892  17.680  1.00 93.58    -0.221 OA
HETATM   16  O6  SIA A 603     -38.847  38.751  20.781  1.00 96.74    -0.325 OA
HETATM   17  O7  SIA A 603     -39.757  40.916  22.321  1.00 91.80    -0.218 OA
HETATM   18  O8  SIA A 603     -41.685  37.960  21.545  1.00 85.38    -0.218 OA
HETATM   19  O9  SIA A 603     -42.278  38.542  24.524  1.00 87.88    -0.218 OA
HETATM   20  O10 SIA A 603     -40.542  43.173  20.503  1.00 89.96    -0.271 OA
HETATM   21  C1  GAL A 604     -33.657  35.097  21.992  1.00159.95     0.303 C 
HETATM   22  C2  GAL A 604     -34.163  33.938  22.830  1.00158.93     0.244 C 
HETATM   23  C3  GAL A 604     -35.386  33.276  22.206  1.00146.87     0.220 C 
HETATM   24  C4  GAL A 604     -36.492  34.290  21.933  1.00134.70     0.215 C 
HETATM   25  C5  GAL A 604     -35.915  35.529  21.249  1.00131.58     0.180 C 
HETATM   26  C6  GAL A 604     -36.899  36.708  21.302  1.00107.43     0.178 C 
HETATM   27  O1  GAL A 604     -32.604  35.750  22.679  1.00171.21    -0.187 OA
HETATM   28  O2  GAL A 604     -33.123  32.984  22.940  1.00162.93    -0.215 OA
HETATM   29  O3  GAL A 604     -35.854  32.272  23.069  1.00139.56    -0.218 OA
HETATM   30  O4  GAL A 604     -37.123  34.671  23.137  1.00132.79    -0.218 OA
HETATM   31  O5  GAL A 604     -34.737  35.986  21.892  1.00150.70    -0.324 OA
HETATM   32  O6  GAL A 604     -36.791  37.481  20.115  1.00103.62    -0.324 OA
ENDROOT
TORSDOF 8
ENDMDL
MODEL 4
REMARK VINA RESULT:      -5.8      1.905      2.003
REMARK  0 active torsions:
REMARK  status: ('A' for Active; 'I' for Inactive)
REMARK       I    between atoms: C1_3964  and  C2_3965 
REMARK       I    between atoms: C2_3965  and  O6_3995 
REMARK       I    between atoms: C5_3968  and  N5_3975 
REMARK       I    between atoms: C6_3969  and  C7_3970 
REMARK       I    between atoms: C7_3970  and  C8_3971 
REMARK       I    between atoms: C8_3971  and  C9_3972 
REMARK       I    between atoms: C10_3973  and  N5_3975 
REMARK       I    between atoms: C5_3988  and  C6_3989 
REMARK       I    between atoms: C6_3989  and  O6_3995 
ROOT
HETATM    1  C1  SIA A 603     -39.076  39.322  22.757  1.00 97.87     0.240 C 
HETATM    2  C2  SIA A 603     -38.718  38.808  21.379  1.00108.65     0.271 C 
HETATM    3  C3  SIA A 603     -40.090  38.724  21.033  1.00101.59     0.103 C 
HETATM    4  C4  SIA A 603     -40.898  39.897  20.884  1.00 97.89     0.182 C 
HETATM    5  C5  SIA A 603     -40.404  40.852  19.852  1.00 90.71     0.166 C 
HETATM    6  C6  SIA A 603     -38.960  41.108  20.100  1.00 94.22     0.176 C 
HETATM    7  C7  SIA A 603     -38.262  41.788  19.086  1.00 95.96     0.214 C 
HETATM    8  C8  SIA A 603     -36.758  41.816  19.479  1.00 95.66     0.218 C 
HETATM    9  C9  SIA A 603     -35.962  42.838  18.657  1.00 86.65     0.218 C 
HETATM   10  C10 SIA A 603     -41.420  42.992  18.784  1.00 85.31     0.252 C 
HETATM   11  C11 SIA A 603     -42.258  44.245  18.967  1.00 84.13     0.100 C 
HETATM   12  N5  SIA A 603     -41.195  42.090  19.945  1.00 87.90    -0.235 NA
HETATM   13  O1A SIA A 603     -38.603  40.465  23.133  1.00 89.45    -0.644 OA
HETATM   14  O1B SIA A 603     -39.790  38.652  23.555  1.00 90.16    -0.644 OA
HETATM   15  O4  SIA A 603     -42.278  39.565  20.660  1.00 93.58    -0.221 OA
HETATM   16  O6  SIA A 603     -38.379  39.689  20.256  1.00 96.74    -0.325 OA
HETATM   17  O7  SIA A 603     -38.384  41.146  17.854  1.00 91.80    -0.218 OA
HETATM   18  O8  SIA A 603     -36.560  42.061  20.837  1.00 85.38    -0.218 OA
HETATM   19  O9  SIA A 603     -34.605  42.609  18.504  1.00 87.88    -0.218 OA
HETATM   20  O10 SIA A 603     -40.923  42.739  17.661  1.00 89.96    -0.271 OA
HETATM   21  C1  GAL A 604     -36.583  33.527  20.998  1.00159.95     0.303 C 
HETATM   22  C2  GAL A 604     -35.104  33.572  21.337  1.00158.93     0.244 C 
HETATM   23  C3  GAL A 604     -34.811  34.555  22.467  1.00146.87     0.220 C 
HETATM   24  C4  GAL A 604     -35.353  35.945  22.153  1.00134.70     0.215 C 
HETATM   25  C5  GAL A 604     -36.789  35.847  21.637  1.00131.58     0.180 C 
HETATM   26  C6  GAL A 604     -37.232  37.155  20.961  1.00107.43     0.178 C 
HETATM   27  O1  GAL A 604     -36.779  32.699  19.866  1.00171.21    -0.187 OA
HETATM   28  O2  GAL A 604     -34.701  32.276  21.733  1.00162.93    -0.215 OA
HETATM   29  O3  GAL A 604     -33.423  34.613  22.672  1.00139.56    -0.218 OA
HETATM   30  O4  GAL A 604     -34.550  36.583  21.182  1.00132.79    -0.218 OA
HETATM   31  O5  GAL A 604     -36.928  34.841  20.649  1.00150.70    -0.324 OA
HETATM   32  O6  GAL A 604     -38.612  37.383  21.208  1.00103.62    -0.324 OA
ENDROOT
TORSDOF 8
ENDMDL
MODEL 5
REMARK VINA RESULT:      -5.7      2.736      4.314
REMARK  0 active torsions:
REMARK  status: ('A' for Active; 'I' for Inactive)
REMARK       I    between atoms: C1_3964  and  C2_3965 
REMARK       I    between atoms: C2_3965  and  O6_3995 
REMARK       I    between atoms: C5_3968  and  N5_3975 
REMARK       I    between atoms: C6_3969  and  C7_3970 
REMARK       I    between atoms: C7_3970  and  C8_3971 
REMARK       I    between atoms: C8_3971  and  C9_3972 
REMARK       I    between atoms: C10_3973  and  N5_3975 
REMARK       I    between atoms: C5_3988  and  C6_3989 
REMARK       I    between atoms: C6_3989  and  O6_3995 
ROOT
HETATM    1  C1  SIA A 603     -41.287  38.280  19.990  1.00 97.87     0.240 C 
HETATM    2  C2  SIA A 603     -39.837  38.643  20.229  1.00108.65     0.271 C 
HETATM    3  C3  SIA A 603     -40.014  39.878  19.559  1.00101.59     0.103 C 
HETATM    4  C4  SIA A 603     -40.837  40.915  20.107  1.00 97.89     0.182 C 
HETATM    5  C5  SIA A 603     -40.413  41.383  21.456  1.00 90.71     0.166 C 
HETATM    6  C6  SIA A 603     -40.230  40.195  22.331  1.00 94.22     0.176 C 
HETATM    7  C7  SIA A 603     -39.594  40.418  23.566  1.00 95.96     0.214 C 
HETATM    8  C8  SIA A 603     -39.374  39.037  24.246  1.00 95.66     0.218 C 
HETATM    9  C9  SIA A 603     -39.037  39.171  25.736  1.00 86.65     0.218 C 
HETATM   10  C10 SIA A 603     -41.150  43.372  22.958  1.00 85.31     0.252 C 
HETATM   11  C11 SIA A 603     -42.278  44.265  23.444  1.00 84.13     0.100 C 
HETATM   12  N5  SIA A 603     -41.447  42.288  21.984  1.00 87.90    -0.235 NA
HETATM   13  O1A SIA A 603     -42.035  38.018  21.011  1.00 89.45    -0.644 OA
HETATM   14  O1B SIA A 603     -41.770  38.195  18.826  1.00 90.16    -0.644 OA
HETATM   15  O4  SIA A 603     -40.973  42.020  19.197  1.00 93.58    -0.221 OA
HETATM   16  O6  SIA A 603     -39.357  39.262  21.470  1.00 96.74    -0.325 OA
HETATM   17  O7  SIA A 603     -38.353  41.034  23.404  1.00 91.80    -0.218 OA
HETATM   18  O8  SIA A 603     -40.463  38.181  24.092  1.00 85.38    -0.218 OA
HETATM   19  O9  SIA A 603     -38.315  38.142  26.317  1.00 87.88    -0.218 OA
HETATM   20  O10 SIA A 603     -39.988  43.553  23.392  1.00 89.96    -0.271 OA
HETATM   21  C1  GAL A 604     -35.871  35.738  17.325  1.00159.95     0.303 C 
HETATM   22  C2  GAL A 604     -35.629  34.412  18.022  1.00158.93     0.244 C 
HETATM   23  C3  GAL A 604     -36.920  33.816  18.574  1.00146.87     0.220 C 
HETATM   24  C4  GAL A 604     -37.644  34.800  19.486  1.00134.70     0.215 C 
HETATM   25  C5  GAL A 604     -37.710  36.179  18.828  1.00131.58     0.180 C 
HETATM   26  C6  GAL A 604     -38.080  37.269  19.847  1.00107.43     0.178 C 
HETATM   27  O1  GAL A 604     -34.629  36.302  16.946  1.00171.21    -0.187 OA
HETATM   28  O2  GAL A 604     -35.067  33.514  17.084  1.00162.93    -0.215 OA
HETATM   29  O3  GAL A 604     -36.616  32.640  19.278  1.00139.56    -0.218 OA
HETATM   30  O4  GAL A 604     -36.981  34.906  20.728  1.00132.79    -0.218 OA
HETATM   31  O5  GAL A 604     -36.457  36.568  18.291  1.00150.70    -0.324 OA
HETATM   32  O6  GAL A 604     -38.881  38.262  19.222  1.00103.62    -0.324 OA
ENDROOT
TORSDOF 8
ENDMDL
MODEL 6
REMARK VINA RESULT:      -5.6      2.550      4.034
REMARK  0 active torsions:
REMARK  status: ('A' for Active; 'I' for Inactive)
REMARK       I    between atoms: C1_3964  and  C2_3965 
REMARK       I    between atoms: C2_3965  and  O6_3995 
REMARK       I    between atoms: C5_3968  and  N5_3975 
REMARK       I    between atoms: C6_3969  and  C7_3970 
REMARK       I    between atoms: C7_3970  and  C8_3971 
REMARK       I    between atoms: C8_3971  and  C9_3972 
REMARK       I    between atoms: C10_3973  and  N5_3975 
REMARK       I    between atoms: C5_3988  and  C6_3989 
REMARK       I    between atoms: C6_3989  and  O6_3995 
ROOT
HETATM    1  C1  SIA A 603     -35.884  37.986  22.372  1.00 97.87     0.240 C 
HETATM    2  C2  SIA A 603     -36.687  37.277  21.302  1.00108.65     0.271 C 
HETATM    3  C3  SIA A 603     -37.302  36.456  22.279  1.00101.59     0.103 C 
HETATM    4  C4  SIA A 603     -38.211  36.995  23.246  1.00 97.89     0.182 C 
HETATM    5  C5  SIA A 603     -39.400  37.672  22.656  1.00 90.71     0.166 C 
HETATM    6  C6  SIA A 603     -38.931  38.636  21.625  1.00 94.22     0.176 C 
HETATM    7  C7  SIA A 603     -39.918  39.187  20.788  1.00 95.96     0.214 C 
HETATM    8  C8  SIA A 603     -39.201  40.039  19.703  1.00 95.66     0.218 C 
HETATM    9  C9  SIA A 603     -40.167  40.979  18.971  1.00 86.65     0.218 C 
HETATM   10  C10 SIA A 603     -41.598  38.608  23.678  1.00 85.31     0.252 C 
HETATM   11  C11 SIA A 603     -42.277  39.309  24.842  1.00 84.13     0.100 C 
HETATM   12  N5  SIA A 603     -40.134  38.352  23.736  1.00 87.90    -0.235 NA
HETATM   13  O1A SIA A 603     -35.997  39.269  22.482  1.00 89.45    -0.644 OA
HETATM   14  O1B SIA A 603     -35.087  37.363  23.128  1.00 90.16    -0.644 OA
HETATM   15  O4  SIA A 603     -38.606  36.007  24.212  1.00 93.58    -0.221 OA
HETATM   16  O6  SIA A 603     -37.958  37.791  20.779  1.00 96.74    -0.325 OA
HETATM   17  O7  SIA A 603     -40.665  38.198  20.150  1.00 91.80    -0.218 OA
HETATM   18  O8  SIA A 603     -38.135  40.777  20.214  1.00 85.38    -0.218 OA
HETATM   19  O9  SIA A 603     -39.820  41.372  17.690  1.00 87.88    -0.218 OA
HETATM   20  O10 SIA A 603     -42.278  38.264  22.683  1.00 89.96    -0.271 OA
HETATM   21  C1  GAL A 604     -33.876  33.804  17.748  1.00159.95     0.303 C 
HETATM   22  C2  GAL A 604     -33.219  34.640  16.666  1.00158.93     0.244 C 
HETATM   23  C3  GAL A 604     -32.675  35.955  17.215  1.00146.87     0.220 C 
HETATM   24  C4  GAL A 604     -33.755  36.743  17.949  1.00134.70     0.215 C 
HETATM   25  C5  GAL A 604     -34.522  35.825  18.902  1.00131.58     0.180 C 
HETATM   26  C6  GAL A 604     -35.837  36.472  19.366  1.00107.43     0.178 C 
HETATM   27  O1  GAL A 604     -34.471  32.660  17.161  1.00171.21    -0.187 OA
HETATM   28  O2  GAL A 604     -32.154  33.891  16.113  1.00162.93    -0.215 OA
HETATM   29  O3  GAL A 604     -32.160  36.716  16.154  1.00139.56    -0.218 OA
HETATM   30  O4  GAL A 604     -34.657  37.322  17.031  1.00132.79    -0.218 OA
HETATM   31  O5  GAL A 604     -34.895  34.608  18.277  1.00150.70    -0.324 OA
HETATM   32  O6  GAL A 604     -36.111  36.098  20.709  1.00103.62    -0.324 OA
ENDROOT
TORSDOF 8
ENDMDL
MODEL 7
REMARK VINA RESULT:      -5.4      2.475      4.687
REMARK  0 active torsions:
REMARK  status: ('A' for Active; 'I' for Inactive)
REMARK       I    between atoms: C1_3964  and  C2_3965 
REMARK       I    between atoms: C2_3965  and  O6_3995 
REMARK       I    between atoms: C5_3968  and  N5_3975 
REMARK       I    between atoms: C6_3969  and  C7_3970 
REMARK       I    between atoms: C7_3970  and  C8_3971 
REMARK       I    between atoms: C8_3971  and  C9_3972 
REMARK       I    between atoms: C10_3973  and  N5_3975 
REMARK       I    between atoms: C5_3988  and  C6_3989 
REMARK       I    between atoms: C6_3989  and  O6_3995 
ROOT
HETATM    1  C1  SIA A 603     -35.998  39.628  19.906  1.00 97.87     0.240 C 
HETATM    2  C2  SIA A 603     -36.449  38.318  20.515  1.00108.65     0.271 C 
HETATM    3  C3  SIA A 603     -36.127  38.788  21.813  1.00101.59     0.103 C 
HETATM    4  C4  SIA A 603     -36.863  39.851  22.428  1.00 97.89     0.182 C 
HETATM    5  C5  SIA A 603     -38.320  39.577  22.579  1.00 90.71     0.166 C 
HETATM    6  C6  SIA A 603     -38.852  39.118  21.269  1.00 94.22     0.176 C 
HETATM    7  C7  SIA A 603     -40.150  38.577  21.275  1.00 95.96     0.214 C 
HETATM    8  C8  SIA A 603     -40.446  38.030  19.850  1.00 95.66     0.218 C 
HETATM    9  C9  SIA A 603     -41.939  37.759  19.630  1.00 86.65     0.218 C 
HETATM   10  C10 SIA A 603     -40.237  40.810  23.828  1.00 85.31     0.252 C 
HETATM   11  C11 SIA A 603     -40.849  42.132  24.256  1.00 84.13     0.100 C 
HETATM   12  N5  SIA A 603     -38.983  40.813  23.028  1.00 87.90    -0.235 NA
HETATM   13  O1A SIA A 603     -36.842  40.303  19.196  1.00 89.45    -0.644 OA
HETATM   14  O1B SIA A 603     -34.818  40.056  20.044  1.00 90.16    -0.644 OA
HETATM   15  O4  SIA A 603     -36.279  40.244  23.681  1.00 93.58    -0.221 OA
HETATM   16  O6  SIA A 603     -37.847  38.026  20.851  1.00 96.74    -0.325 OA
HETATM   17  O7  SIA A 603     -40.268  37.526  22.185  1.00 91.80    -0.218 OA
HETATM   18  O8  SIA A 603     -39.973  38.868  18.842  1.00 85.38    -0.218 OA
HETATM   19  O9  SIA A 603     -42.278  36.813  18.679  1.00 87.88    -0.218 OA
HETATM   20  O10 SIA A 603     -40.800  39.737  24.147  1.00 89.96    -0.271 OA
HETATM   21  C1  GAL A 604     -33.213  33.709  19.570  1.00159.95     0.303 C 
HETATM   22  C2  GAL A 604     -33.542  33.155  18.197  1.00158.93     0.244 C 
HETATM   23  C3  GAL A 604     -33.800  34.265  17.183  1.00146.87     0.220 C 
HETATM   24  C4  GAL A 604     -34.880  35.226  17.669  1.00134.70     0.215 C 
HETATM   25  C5  GAL A 604     -34.618  35.623  19.122  1.00131.58     0.180 C 
HETATM   26  C6  GAL A 604     -35.859  36.269  19.759  1.00107.43     0.178 C 
HETATM   27  O1  GAL A 604     -33.108  32.641  20.495  1.00171.21    -0.187 OA
HETATM   28  O2  GAL A 604     -32.447  32.373  17.761  1.00162.93    -0.215 OA
HETATM   29  O3  GAL A 604     -34.182  33.688  15.961  1.00139.56    -0.218 OA
HETATM   30  O4  GAL A 604     -36.155  34.629  17.570  1.00132.79    -0.218 OA
HETATM   31  O5  GAL A 604     -34.315  34.498  19.930  1.00150.70    -0.324 OA
HETATM   32  O6  GAL A 604     -35.461  37.282  20.672  1.00103.62    -0.324 OA
ENDROOT
TORSDOF 8
ENDMDL
MODEL 8
REMARK VINA RESULT:      -5.4      2.960      8.397
REMARK  0 active torsions:
REMARK  status: ('A' for Active; 'I' for Inactive)
REMARK       I    between atoms: C1_3964  and  C2_3965 
REMARK       I    between atoms: C2_3965  and  O6_3995 
REMARK       I    between atoms: C5_3968  and  N5_3975 
REMARK       I    between atoms: C6_3969  and  C7_3970 
REMARK       I    between atoms: C7_3970  and  C8_3971 
REMARK       I    between atoms: C8_3971  and  C9_3972 
REMARK       I    between atoms: C10_3973  and  N5_3975 
REMARK       I    between atoms: C5_3988  and  C6_3989 
REMARK       I    between atoms: C6_3989  and  O6_3995 
ROOT
HETATM    1  C1  SIA A 603     -34.891  39.106  20.234  1.00 97.87     0.240 C 
HETATM    2  C2  SIA A 603     -36.172  38.549  19.650  1.00108.65     0.271 C 
HETATM    3  C3  SIA A 603     -35.666  38.708  18.336  1.00101.59     0.103 C 
HETATM    4  C4  SIA A 603     -34.569  37.921  17.856  1.00 97.89     0.182 C 
HETATM    5  C5  SIA A 603     -34.810  36.451  17.891  1.00 90.71     0.166 C 
HETATM    6  C6  SIA A 603     -35.303  36.086  19.246  1.00 94.22     0.176 C 
HETATM    7  C7  SIA A 603     -35.819  34.786  19.396  1.00 95.96     0.214 C 
HETATM    8  C8  SIA A 603     -36.407  34.669  20.830  1.00 95.66     0.218 C 
HETATM    9  C9  SIA A 603     -36.656  33.211  21.238  1.00 86.65     0.218 C 
HETATM   10  C10 SIA A 603     -33.501  34.415  16.945  1.00 85.31     0.252 C 
HETATM   11  C11 SIA A 603     -32.154  33.783  16.642  1.00 84.13     0.100 C 
HETATM   12  N5  SIA A 603     -33.549  35.763  17.572  1.00 87.90    -0.235 NA
HETATM   13  O1A SIA A 603     -34.225  38.379  21.069  1.00 89.45    -0.644 OA
HETATM   14  O1B SIA A 603     -34.481  40.267  19.953  1.00 90.16    -0.644 OA
HETATM   15  O4  SIA A 603     -34.146  38.343  16.549  1.00 93.58    -0.221 OA
HETATM   16  O6  SIA A 603     -36.426  37.112  19.494  1.00 96.74    -0.325 OA
HETATM   17  O7  SIA A 603     -36.836  34.526  18.478  1.00 91.80    -0.218 OA
HETATM   18  O8  SIA A 603     -35.611  35.289  21.791  1.00 85.38    -0.218 OA
HETATM   19  O9  SIA A 603     -37.627  32.979  22.197  1.00 87.88    -0.218 OA
HETATM   20  O10 SIA A 603     -34.553  33.790  16.672  1.00 89.96    -0.271 OA
HETATM   21  C1  GAL A 604     -40.869  41.774  20.018  1.00159.95     0.303 C 
HETATM   22  C2  GAL A 604     -41.462  41.616  21.406  1.00158.93     0.244 C 
HETATM   23  C3  GAL A 604     -40.381  41.520  22.478  1.00146.87     0.220 C 
HETATM   24  C4  GAL A 604     -39.385  40.407  22.169  1.00134.70     0.215 C 
HETATM   25  C5  GAL A 604     -38.945  40.485  20.706  1.00131.58     0.180 C 
HETATM   26  C6  GAL A 604     -38.256  39.186  20.259  1.00107.43     0.178 C 
HETATM   27  O1  GAL A 604     -41.908  41.731  19.056  1.00171.21    -0.187 OA
HETATM   28  O2  GAL A 604     -42.279  42.741  21.669  1.00162.93    -0.215 OA
HETATM   29  O3  GAL A 604     -40.991  41.290  23.722  1.00139.56    -0.218 OA
HETATM   30  O4  GAL A 604     -39.961  39.143  22.417  1.00132.79    -0.218 OA
HETATM   31  O5  GAL A 604     -40.048  40.652  19.831  1.00150.70    -0.324 OA
HETATM   32  O6  GAL A 604     -37.221  39.484  19.333  1.00103.62    -0.324 OA
ENDROOT
TORSDOF 8
ENDMDL
MODEL 9
REMARK VINA RESULT:      -5.1      2.564      3.700
REMARK  0 active torsions:
REMARK  status: ('A' for Active; 'I' for Inactive)
REMARK       I    between atoms: C1_3964  and  C2_3965 
REMARK       I    between atoms: C2_3965  and  O6_3995 
REMARK       I    between atoms: C5_3968  and  N5_3975 
REMARK       I    between atoms: C6_3969  and  C7_3970 
REMARK       I    between atoms: C7_3970  and  C8_3971 
REMARK       I    between atoms: C8_3971  and  C9_3972 
REMARK       I    between atoms: C10_3973  and  N5_3975 
REMARK       I    between atoms: C5_3988  and  C6_3989 
REMARK       I    between atoms: C6_3989  and  O6_3995 
ROOT
HETATM    1  C1  SIA A 603     -36.240  39.559  22.287  1.00 97.87     0.240 C 
HETATM    2  C2  SIA A 603     -37.346  38.785  21.602  1.00108.65     0.271 C 
HETATM    3  C3  SIA A 603     -37.950  38.502  22.852  1.00101.59     0.103 C 
HETATM    4  C4  SIA A 603     -38.545  39.534  23.647  1.00 97.89     0.182 C 
HETATM    5  C5  SIA A 603     -39.642  40.275  22.964  1.00 90.71     0.166 C 
HETATM    6  C6  SIA A 603     -39.157  40.709  21.627  1.00 94.22     0.176 C 
HETATM    7  C7  SIA A 603     -40.128  41.206  20.739  1.00 95.96     0.214 C 
HETATM    8  C8  SIA A 603     -39.437  41.457  19.369  1.00 95.66     0.218 C 
HETATM    9  C9  SIA A 603     -40.287  42.336  18.443  1.00 86.65     0.218 C 
HETATM   10  C10 SIA A 603     -41.383  42.022  23.784  1.00 85.31     0.252 C 
HETATM   11  C11 SIA A 603     -41.688  43.204  24.687  1.00 84.13     0.100 C 
HETATM   12  N5  SIA A 603     -40.020  41.426  23.801  1.00 87.90    -0.235 NA
HETATM   13  O1A SIA A 603     -36.054  40.795  21.957  1.00 89.45    -0.644 OA
HETATM   14  O1B SIA A 603     -35.480  39.021  23.141  1.00 90.16    -0.644 OA
HETATM   15  O4  SIA A 603     -38.976  39.037  24.925  1.00 93.58    -0.221 OA
HETATM   16  O6  SIA A 603     -38.546  39.419  21.045  1.00 96.74    -0.325 OA
HETATM   17  O7  SIA A 603     -41.168  40.296  20.550  1.00 91.80    -0.218 OA
HETATM   18  O8  SIA A 603     -38.167  42.015  19.499  1.00 85.38    -0.218 OA
HETATM   19  O9  SIA A 603     -40.084  42.202  17.080  1.00 87.88    -0.218 OA
HETATM   20  O10 SIA A 603     -42.278  41.571  23.032  1.00 89.96    -0.271 OA
HETATM   21  C1  GAL A 604     -35.989  33.766  19.242  1.00159.95     0.303 C 
HETATM   22  C2  GAL A 604     -35.359  34.019  17.885  1.00158.93     0.244 C 
HETATM   23  C3  GAL A 604     -34.460  35.251  17.897  1.00146.87     0.220 C 
HETATM   24  C4  GAL A 604     -35.205  36.482  18.402  1.00134.70     0.215 C 
HETATM   25  C5  GAL A 604     -35.980  36.142  19.676  1.00131.58     0.180 C 
HETATM   26  C6  GAL A 604     -37.027  37.220  19.999  1.00107.43     0.178 C 
HETATM   27  O1  GAL A 604     -36.907  32.692  19.141  1.00171.21    -0.187 OA
HETATM   28  O2  GAL A 604     -34.589  32.885  17.536  1.00162.93    -0.215 OA
HETATM   29  O3  GAL A 604     -33.980  35.478  16.597  1.00139.56    -0.218 OA
HETATM   30  O4  GAL A 604     -36.103  36.956  17.422  1.00132.79    -0.218 OA
HETATM   31  O5  GAL A 604     -36.707  34.932  19.545  1.00150.70    -0.324 OA
HETATM   32  O6  GAL A 604     -37.146  37.372  21.406  1.00103.62    -0.324 OA
ENDROOT
TORSDOF 8
ENDMDL
