MODEL 1
REMARK VINA RESULT:      -6.2      0.000      0.000
REMARK  0 active torsions:
REMARK  status: ('A' for Active; 'I' for Inactive)
REMARK       I    between atoms: C1_1  and  C2_4 
REMARK       I    between atoms: C2_4  and  O3_21 
REMARK       I    between atoms: C5_8  and  N5_11 
REMARK       I    between atoms: C10_12  and  N5_11 
REMARK       I    between atoms: C6_9  and  C7_15 
REMARK       I    between atoms: C7_15  and  C8_17 
REMARK       I    between atoms: C8_17  and  C9_19 
REMARK       I    between atoms: C1_24  and  O3_30 
REMARK       I    between atoms: C3_22  and  O3_21 
REMARK       I    between atoms: C5_27  and  C6_45 
REMARK       I    between atoms: C2_32  and  N2_39 
REMARK       I    between atoms: C7_40  and  N2_39 
REMARK       I    between atoms: C3_31  and  O3_30 
REMARK       I    between atoms: C5_36  and  C6_43 
ROOT
HETATM    1  C1  SIA C1001     -36.768  33.418  22.221  1.00 29.87     0.240 C 
HETATM    2  O1A SIA C1001     -37.202  32.663  21.353  1.00 27.54    -0.644 OA
HETATM    3  O1B SIA C1001     -36.667  33.012  23.411  1.00 32.56    -0.644 OA
HETATM    4  C2  SIA C1001     -36.353  34.833  21.854  1.00 28.70     0.271 C 
HETATM    5  C3  SIA C1001     -34.846  35.050  22.204  1.00 26.68     0.103 C 
HETATM    6  C4  SIA C1001     -33.963  34.135  21.386  1.00 27.13     0.182 C 
HETATM    7  O4  SIA C1001     -32.575  34.281  21.683  1.00 27.74    -0.221 OA
HETATM    8  C5  SIA C1001     -34.216  34.413  19.906  1.00 27.71     0.166 C 
HETATM    9  N5  SIA C1001     -33.464  33.392  19.223  1.00 25.75    -0.235 NA
HETATM   10  C6  SIA C1001     -35.726  34.270  19.578  1.00 27.96     0.176 C 
HETATM   11  O6  SIA C1001     -36.534  35.070  20.447  1.00 26.35    -0.325 OA
HETATM   12  C7  SIA C1001     -36.125  34.535  18.134  1.00 26.98     0.214 C 
HETATM   13  O7  SIA C1001     -35.456  35.697  17.679  1.00 25.74    -0.218 OA
HETATM   14  C8  SIA C1001     -37.648  34.630  18.002  1.00 27.81     0.218 C 
HETATM   15  O8  SIA C1001     -38.287  33.513  18.605  1.00 27.64    -0.218 OA
HETATM   16  C9  SIA C1001     -38.130  34.590  16.559  1.00 28.76     0.218 C 
HETATM   17  O9  SIA C1001     -39.560  34.736  16.513  1.00 25.96    -0.218 OA
HETATM   18  C10 SIA C1001     -32.899  33.616  18.057  1.00 26.15     0.252 C 
HETATM   19  O10 SIA C1001     -32.989  34.676  17.445  1.00 27.52    -0.271 OA
HETATM   20  C11 SIA C1001     -32.154  32.444  17.513  1.00 25.91     0.100 C 
HETATM   21  C1  GAL C1002     -37.804  39.155  23.697  1.00 42.56     0.270 C 
HETATM   22  C2  GAL C1002     -37.424  37.648  23.758  1.00 38.39     0.238 C 
HETATM   23  O2  GAL C1002     -36.227  37.394  24.438  1.00 35.49    -0.215 OA
HETATM   24  C3  GAL C1002     -37.208  37.019  22.384  1.00 32.50     0.186 C 
HETATM   25  O3  GAL C1002     -37.324  35.623  22.569  1.00 29.89    -0.324 OA
HETATM   26  C4  GAL C1002     -38.220  37.507  21.339  1.00 32.62     0.211 C 
HETATM   27  O4  GAL C1002     -39.496  36.980  21.608  1.00 31.61    -0.218 OA
HETATM   28  C5  GAL C1002     -38.392  39.007  21.348  1.00 32.94     0.184 C 
HETATM   29  O5  GAL C1002     -38.756  39.342  22.664  1.00 37.12    -0.326 OA
HETATM   30  C6  GAL C1002     -39.562  39.346  20.379  1.00 32.14     0.214 C 
HETATM   31  O6  GAL C1002     -39.877  40.711  20.452  1.00 30.07    -0.218 OA
HETATM   32  C1  NAG C1003     -37.760  43.335  26.041  1.00 69.25     0.294 C 
HETATM   33  O1  NAG C1003     -36.981  43.659  27.148  1.00 64.12    -0.188 OA
HETATM   34  C2  NAG C1003     -37.435  41.880  25.687  1.00 65.91     0.195 C 
HETATM   35  N2  NAG C1003     -36.351  41.894  24.731  1.00 74.96    -0.232 NA
HETATM   36  C3  NAG C1003     -38.514  41.124  24.919  1.00 60.49     0.178 C 
HETATM   37  O3  NAG C1003     -38.308  39.696  24.964  1.00 50.89    -0.327 OA
HETATM   38  C4  NAG C1003     -39.928  41.611  25.251  1.00 61.41     0.211 C 
HETATM   39  O4  NAG C1003     -40.763  41.067  24.241  1.00 69.67    -0.218 OA
HETATM   40  C5  NAG C1003     -39.977  43.161  25.318  1.00 68.17     0.184 C 
HETATM   41  O5  NAG C1003     -39.126  43.586  26.366  1.00 70.44    -0.325 OA
HETATM   42  C6  NAG C1003     -41.357  43.788  25.519  1.00 66.34     0.214 C 
HETATM   43  O6  NAG C1003     -41.811  43.314  26.760  1.00 64.10    -0.218 OA
HETATM   44  C7  NAG C1003     -35.149  41.378  24.960  1.00 80.23     0.252 C 
HETATM   45  O7  NAG C1003     -34.876  40.873  26.051  1.00 82.55    -0.271 OA
HETATM   46  C8  NAG C1003     -34.138  41.460  23.829  1.00 75.65     0.100 C 
ENDROOT
TORSDOF 12
ENDMDL
MODEL 2
REMARK VINA RESULT:      -5.1      2.872      4.988
REMARK  0 active torsions:
REMARK  status: ('A' for Active; 'I' for Inactive)
REMARK       I    between atoms: C1_1  and  C2_4 
REMARK       I    between atoms: C2_4  and  O3_21 
REMARK       I    between atoms: C5_8  and  N5_11 
REMARK       I    between atoms: C10_12  and  N5_11 
REMARK       I    between atoms: C6_9  and  C7_15 
REMARK       I    between atoms: C7_15  and  C8_17 
REMARK       I    between atoms: C8_17  and  C9_19 
REMARK       I    between atoms: C1_24  and  O3_30 
REMARK       I    between atoms: C3_22  and  O3_21 
REMARK       I    between atoms: C5_27  and  C6_45 
REMARK       I    between atoms: C2_32  and  N2_39 
REMARK       I    between atoms: C7_40  and  N2_39 
REMARK       I    between atoms: C3_31  and  O3_30 
REMARK       I    between atoms: C5_36  and  C6_43 
ROOT
HETATM    1  C1  SIA C1001     -37.602  33.412  22.977  1.00 29.87     0.240 C 
HETATM    2  O1A SIA C1001     -36.870  32.580  22.444  1.00 27.54    -0.644 OA
HETATM    3  O1B SIA C1001     -38.782  33.097  23.294  1.00 32.56    -0.644 OA
HETATM    4  C2  SIA C1001     -37.078  34.811  23.256  1.00 28.70     0.271 C 
HETATM    5  C3  SIA C1001     -37.156  35.109  24.788  1.00 26.68     0.103 C 
HETATM    6  C4  SIA C1001     -36.263  34.170  25.568  1.00 27.13     0.182 C 
HETATM    7  O4  SIA C1001     -36.312  34.390  26.977  1.00 27.74    -0.221 OA
HETATM    8  C5  SIA C1001     -34.831  34.331  25.061  1.00 27.71     0.166 C 
HETATM    9  N5  SIA C1001     -34.100  33.292  25.740  1.00 25.75    -0.235 NA
HETATM   10  C6  SIA C1001     -34.771  34.108  23.527  1.00 27.96     0.176 C 
HETATM   11  O6  SIA C1001     -35.710  34.938  22.835  1.00 26.35    -0.325 OA
HETATM   12  C7  SIA C1001     -33.401  34.253  22.882  1.00 26.98     0.214 C 
HETATM   13  O7  SIA C1001     -32.765  35.403  23.409  1.00 25.74    -0.218 OA
HETATM   14  C8  SIA C1001     -33.520  34.280  21.356  1.00 27.81     0.218 C 
HETATM   15  O8  SIA C1001     -34.294  33.187  20.880  1.00 27.64    -0.218 OA
HETATM   16  C9  SIA C1001     -32.185  34.118  20.644  1.00 28.76     0.218 C 
HETATM   17  O9  SIA C1001     -32.370  34.207  19.221  1.00 25.96    -0.218 OA
HETATM   18  C10 SIA C1001     -32.843  33.453  26.092  1.00 26.15     0.252 C 
HETATM   19  O10 SIA C1001     -32.188  34.461  25.851  1.00 27.52    -0.271 OA
HETATM   20  C11 SIA C1001     -32.259  32.273  26.794  1.00 25.91     0.100 C 
HETATM   21  C1  GAL C1002     -38.853  39.197  21.919  1.00 42.56     0.270 C 
HETATM   22  C2  GAL C1002     -38.948  37.714  22.377  1.00 38.39     0.238 C 
HETATM   23  O2  GAL C1002     -39.433  37.555  23.681  1.00 35.49    -0.215 OA
HETATM   24  C3  GAL C1002     -37.601  36.996  22.394  1.00 32.50     0.186 C 
HETATM   25  O3  GAL C1002     -37.893  35.613  22.379  1.00 29.89    -0.324 OA
HETATM   26  C4  GAL C1002     -36.711  37.368  21.201  1.00 32.62     0.211 C 
HETATM   27  O4  GAL C1002     -37.224  36.815  20.014  1.00 31.61    -0.218 OA
HETATM   28  C5  GAL C1002     -36.651  38.857  20.959  1.00 32.94     0.184 C 
HETATM   29  O5  GAL C1002     -37.985  39.273  20.801  1.00 37.12    -0.326 OA
HETATM   30  C6  GAL C1002     -35.872  39.081  19.630  1.00 32.14     0.214 C 
HETATM   31  O6  GAL C1002     -35.908  40.435  19.265  1.00 30.07    -0.218 OA
HETATM   32  C1  NAG C1003     -40.880  43.535  22.143  1.00 69.25     0.294 C 
HETATM   33  O1  NAG C1003     -41.816  43.968  23.077  1.00 64.12    -0.188 OA
HETATM   34  C2  NAG C1003     -40.571  42.072  22.476  1.00 65.91     0.195 C 
HETATM   35  N2  NAG C1003     -39.448  42.056  23.386  1.00 74.96    -0.232 NA
HETATM   36  C3  NAG C1003     -40.046  41.221  21.324  1.00 60.49     0.178 C 
HETATM   37  O3  NAG C1003     -40.149  39.809  21.605  1.00 50.89    -0.327 OA
HETATM   38  C4  NAG C1003     -40.579  41.678  19.962  1.00 61.41     0.211 C 
HETATM   39  O4  NAG C1003     -39.761  41.031  18.999  1.00 69.67    -0.218 OA
HETATM   40  C5  NAG C1003     -40.551  43.225  19.849  1.00 68.17     0.184 C 
HETATM   41  O5  NAG C1003     -41.412  43.757  20.839  1.00 70.44    -0.325 OA
HETATM   42  C6  NAG C1003     -40.940  43.813  18.492  1.00 66.34     0.214 C 
HETATM   43  O6  NAG C1003     -42.268  43.414  18.272  1.00 64.10    -0.218 OA
HETATM   44  C7  NAG C1003     -39.505  41.604  24.633  1.00 80.23     0.252 C 
HETATM   45  O7  NAG C1003     -40.565  41.190  25.107  1.00 82.55    -0.271 OA
HETATM   46  C8  NAG C1003     -38.218  41.642  25.439  1.00 75.65     0.100 C 
ENDROOT
TORSDOF 12
ENDMDL
MODEL 3
REMARK VINA RESULT:      -4.4      4.125      7.273
REMARK  0 active torsions:
REMARK  status: ('A' for Active; 'I' for Inactive)
REMARK       I    between atoms: C1_1  and  C2_4 
REMARK       I    between atoms: C2_4  and  O3_21 
REMARK       I    between atoms: C5_8  and  N5_11 
REMARK       I    between atoms: C10_12  and  N5_11 
REMARK       I    between atoms: C6_9  and  C7_15 
REMARK       I    between atoms: C7_15  and  C8_17 
REMARK       I    between atoms: C8_17  and  C9_19 
REMARK       I    between atoms: C1_24  and  O3_30 
REMARK       I    between atoms: C3_22  and  O3_21 
REMARK       I    between atoms: C5_27  and  C6_45 
REMARK       I    between atoms: C2_32  and  N2_39 
REMARK       I    between atoms: C7_40  and  N2_39 
REMARK       I    between atoms: C3_31  and  O3_30 
REMARK       I    between atoms: C5_36  and  C6_43 
ROOT
HETATM    1  C1  SIA C1001     -36.187  38.870  17.689  1.00 29.87     0.240 C 
HETATM    2  O1A SIA C1001     -36.707  39.772  17.037  1.00 27.54    -0.644 OA
HETATM    3  O1B SIA C1001     -35.898  37.777  17.128  1.00 32.56    -0.644 OA
HETATM    4  C2  SIA C1001     -35.891  39.077  19.165  1.00 28.70     0.271 C 
HETATM    5  C3  SIA C1001     -34.360  38.906  19.426  1.00 26.68     0.103 C 
HETATM    6  C4  SIA C1001     -33.564  39.963  18.693  1.00 27.13     0.182 C 
HETATM    7  O4  SIA C1001     -32.156  39.839  18.884  1.00 27.74    -0.221 OA
HETATM    8  C5  SIA C1001     -34.039  41.337  19.158  1.00 27.71     0.166 C 
HETATM    9  N5  SIA C1001     -33.348  42.259  18.292  1.00 25.75    -0.235 NA
HETATM   10  C6  SIA C1001     -35.572  41.475  18.967  1.00 27.96     0.176 C 
HETATM   11  O6  SIA C1001     -36.281  40.396  19.584  1.00 26.35    -0.325 OA
HETATM   12  C7  SIA C1001     -36.186  42.796  19.404  1.00 26.98     0.214 C 
HETATM   13  O7  SIA C1001     -35.640  43.162  20.659  1.00 25.74    -0.218 OA
HETATM   14  C8  SIA C1001     -37.714  42.706  19.420  1.00 27.81     0.218 C 
HETATM   15  O8  SIA C1001     -38.211  42.192  18.190  1.00 27.64    -0.218 OA
HETATM   16  C9  SIA C1001     -38.397  44.059  19.551  1.00 28.76     0.218 C 
HETATM   17  O9  SIA C1001     -39.823  43.889  19.611  1.00 25.96    -0.218 OA
HETATM   18  C10 SIA C1001     -32.967  43.445  18.713  1.00 26.15     0.252 C 
HETATM   19  O10 SIA C1001     -33.190  43.876  19.840  1.00 27.52    -0.271 OA
HETATM   20  C11 SIA C1001     -32.257  44.252  17.679  1.00 25.91     0.100 C 
HETATM   21  C1  GAL C1002     -37.249  36.439  23.085  1.00 42.56     0.270 C 
HETATM   22  C2  GAL C1002     -36.799  36.652  21.612  1.00 38.39     0.238 C 
HETATM   23  O2  GAL C1002     -35.507  36.185  21.343  1.00 35.49    -0.215 OA
HETATM   24  C3  GAL C1002     -36.756  38.120  21.197  1.00 32.50     0.186 C 
HETATM   25  O3  GAL C1002     -36.783  38.129  19.783  1.00 29.89    -0.324 OA
HETATM   26  C4  GAL C1002     -37.927  38.935  21.760  1.00 32.62     0.211 C 
HETATM   27  O4  GAL C1002     -39.127  38.576  21.120  1.00 31.61    -0.218 OA
HETATM   28  C5  GAL C1002     -38.161  38.682  23.230  1.00 32.94     0.184 C 
HETATM   29  O5  GAL C1002     -38.347  37.294  23.354  1.00 37.12    -0.326 OA
HETATM   30  C6  GAL C1002     -39.472  39.423  23.625  1.00 32.14     0.214 C 
HETATM   31  O6  GAL C1002     -39.833  39.108  24.945  1.00 30.07    -0.218 OA
HETATM   32  C1  NAG C1003     -37.052  33.532  26.892  1.00 69.25     0.294 C 
HETATM   33  O1  NAG C1003     -36.137  32.506  27.107  1.00 64.12    -0.188 OA
HETATM   34  C2  NAG C1003     -36.718  34.138  25.524  1.00 65.91     0.195 C 
HETATM   35  N2  NAG C1003     -35.784  35.219  25.740  1.00 74.96    -0.232 NA
HETATM   36  C3  NAG C1003     -37.862  34.855  24.815  1.00 60.49     0.178 C 
HETATM   37  O3  NAG C1003     -37.589  35.049  23.411  1.00 50.89    -0.327 OA
HETATM   38  C4  NAG C1003     -39.234  34.266  25.160  1.00 61.41     0.211 C 
HETATM   39  O4  NAG C1003     -40.181  35.222  24.710  1.00 69.67    -0.218 OA
HETATM   40  C5  NAG C1003     -39.340  33.966  26.679  1.00 68.17     0.184 C 
HETATM   41  O5  NAG C1003     -38.367  32.992  27.007  1.00 70.44    -0.325 OA
HETATM   42  C6  NAG C1003     -40.703  33.489  27.182  1.00 66.34     0.214 C 
HETATM   43  O6  NAG C1003     -40.953  32.281  26.512  1.00 64.10    -0.218 OA
HETATM   44  C7  NAG C1003     -34.540  35.234  25.275  1.00 80.23     0.252 C 
HETATM   45  O7  NAG C1003     -34.091  34.276  24.641  1.00 82.55    -0.271 OA
HETATM   46  C8  NAG C1003     -33.706  36.466  25.579  1.00 75.65     0.100 C 
ENDROOT
TORSDOF 12
ENDMDL
MODEL 4
REMARK VINA RESULT:      -4.4      2.452      4.831
REMARK  0 active torsions:
REMARK  status: ('A' for Active; 'I' for Inactive)
REMARK       I    between atoms: C1_1  and  C2_4 
REMARK       I    between atoms: C2_4  and  O3_21 
REMARK       I    between atoms: C5_8  and  N5_11 
REMARK       I    between atoms: C10_12  and  N5_11 
REMARK       I    between atoms: C6_9  and  C7_15 
REMARK       I    between atoms: C7_15  and  C8_17 
REMARK       I    between atoms: C8_17  and  C9_19 
REMARK       I    between atoms: C1_24  and  O3_30 
REMARK       I    between atoms: C3_22  and  O3_21 
REMARK       I    between atoms: C5_27  and  C6_45 
REMARK       I    between atoms: C2_32  and  N2_39 
REMARK       I    between atoms: C7_40  and  N2_39 
REMARK       I    between atoms: C3_31  and  O3_30 
REMARK       I    between atoms: C5_36  and  C6_43 
ROOT
HETATM    1  C1  SIA C1001     -33.080  37.859  19.265  1.00 29.87     0.240 C 
HETATM    2  O1A SIA C1001     -32.189  37.042  19.488  1.00 27.54    -0.644 OA
HETATM    3  O1B SIA C1001     -32.793  38.974  18.746  1.00 32.56    -0.644 OA
HETATM    4  C2  SIA C1001     -34.520  37.520  19.610  1.00 28.70     0.271 C 
HETATM    5  C3  SIA C1001     -35.401  37.580  18.321  1.00 26.68     0.103 C 
HETATM    6  C4  SIA C1001     -34.961  36.539  17.316  1.00 27.13     0.182 C 
HETATM    7  O4  SIA C1001     -35.724  36.564  16.111  1.00 27.74    -0.221 OA
HETATM    8  C5  SIA C1001     -35.057  35.162  17.970  1.00 27.71     0.166 C 
HETATM    9  N5  SIA C1001     -34.467  34.272  17.004  1.00 25.75    -0.235 NA
HETATM   10  C6  SIA C1001     -34.242  35.130  19.290  1.00 27.96     0.176 C 
HETATM   11  O6  SIA C1001     -34.614  36.198  20.167  1.00 26.35    -0.325 OA
HETATM   12  C7  SIA C1001     -34.262  33.817  20.058  1.00 26.98     0.214 C 
HETATM   13  O7  SIA C1001     -35.589  33.323  20.088  1.00 25.74    -0.218 OA
HETATM   14  C8  SIA C1001     -33.658  33.997  21.453  1.00 27.81     0.218 C 
HETATM   15  O8  SIA C1001     -32.388  34.633  21.386  1.00 27.64    -0.218 OA
HETATM   16  C9  SIA C1001     -33.368  32.679  22.158  1.00 28.76     0.218 C 
HETATM   17  O9  SIA C1001     -32.854  32.928  23.477  1.00 25.96    -0.218 OA
HETATM   18  C10 SIA C1001     -34.892  33.036  16.857  1.00 26.15     0.252 C 
HETATM   19  O10 SIA C1001     -35.782  32.533  17.535  1.00 27.52    -0.271 OA
HETATM   20  C11 SIA C1001     -34.168  32.272  15.800  1.00 25.91     0.100 C 
HETATM   21  C1  GAL C1002     -37.771  39.921  22.411  1.00 42.56     0.270 C 
HETATM   22  C2  GAL C1002     -36.599  39.796  21.397  1.00 38.39     0.238 C 
HETATM   23  O2  GAL C1002     -36.928  40.206  20.100  1.00 35.49    -0.215 OA
HETATM   24  C3  GAL C1002     -36.100  38.365  21.217  1.00 32.50     0.186 C 
HETATM   25  O3  GAL C1002     -34.805  38.468  20.658  1.00 29.89    -0.324 OA
HETATM   26  C4  GAL C1002     -36.053  37.580  22.533  1.00 32.62     0.211 C 
HETATM   27  O4  GAL C1002     -35.015  38.057  23.354  1.00 31.61    -0.218 OA
HETATM   28  C5  GAL C1002     -37.314  37.731  23.350  1.00 32.94     0.184 C 
HETATM   29  O5  GAL C1002     -37.483  39.113  23.540  1.00 37.12    -0.326 OA
HETATM   30  C6  GAL C1002     -37.065  37.040  24.722  1.00 32.14     0.214 C 
HETATM   31  O6  GAL C1002     -38.144  37.272  25.589  1.00 30.07    -0.218 OA
HETATM   32  C1  NAG C1003     -41.582  42.505  23.744  1.00 69.25     0.294 C 
HETATM   33  O1  NAG C1003     -42.250  43.456  22.978  1.00 64.12    -0.188 OA
HETATM   34  C2  NAG C1003     -40.420  41.989  22.887  1.00 65.91     0.195 C 
HETATM   35  N2  NAG C1003     -40.896  40.841  22.149  1.00 74.96    -0.232 NA
HETATM   36  C3  NAG C1003     -39.240  41.398  23.651  1.00 60.49     0.178 C 
HETATM   37  O3  NAG C1003     -38.059  41.298  22.825  1.00 50.89    -0.327 OA
HETATM   38  C4  NAG C1003     -39.046  42.038  25.029  1.00 61.41     0.211 C 
HETATM   39  O4  NAG C1003     -38.159  41.177  25.725  1.00 69.67    -0.218 OA
HETATM   40  C5  NAG C1003     -40.409  42.225  25.747  1.00 68.17     0.184 C 
HETATM   41  O5  NAG C1003     -41.199  43.111  24.976  1.00 70.44    -0.325 OA
HETATM   42  C6  NAG C1003     -40.353  42.740  27.186  1.00 66.34     0.214 C 
HETATM   43  O6  NAG C1003     -39.758  44.009  27.110  1.00 64.10    -0.218 OA
HETATM   44  C7  NAG C1003     -40.982  40.789  20.825  1.00 80.23     0.252 C 
HETATM   45  O7  NAG C1003     -40.683  41.765  20.134  1.00 82.55    -0.271 OA
HETATM   46  C8  NAG C1003     -41.482  39.490  20.218  1.00 75.65     0.100 C 
ENDROOT
TORSDOF 12
ENDMDL
MODEL 5
REMARK VINA RESULT:      -3.4      2.506      9.806
REMARK  0 active torsions:
REMARK  status: ('A' for Active; 'I' for Inactive)
REMARK       I    between atoms: C1_1  and  C2_4 
REMARK       I    between atoms: C2_4  and  O3_21 
REMARK       I    between atoms: C5_8  and  N5_11 
REMARK       I    between atoms: C10_12  and  N5_11 
REMARK       I    between atoms: C6_9  and  C7_15 
REMARK       I    between atoms: C7_15  and  C8_17 
REMARK       I    between atoms: C8_17  and  C9_19 
REMARK       I    between atoms: C1_24  and  O3_30 
REMARK       I    between atoms: C3_22  and  O3_21 
REMARK       I    between atoms: C5_27  and  C6_45 
REMARK       I    between atoms: C2_32  and  N2_39 
REMARK       I    between atoms: C7_40  and  N2_39 
REMARK       I    between atoms: C3_31  and  O3_30 
REMARK       I    between atoms: C5_36  and  C6_43 
ROOT
HETATM    1  C1  SIA C1001     -41.426  40.162  21.765  1.00 29.87     0.240 C 
HETATM    2  O1A SIA C1001     -42.278  39.947  22.625  1.00 27.54    -0.644 OA
HETATM    3  O1B SIA C1001     -41.777  40.564  20.621  1.00 32.56    -0.644 OA
HETATM    4  C2  SIA C1001     -39.957  39.948  22.087  1.00 28.70     0.271 C 
HETATM    5  C3  SIA C1001     -39.173  41.286  21.895  1.00 26.68     0.103 C 
HETATM    6  C4  SIA C1001     -39.658  42.342  22.862  1.00 27.13     0.182 C 
HETATM    7  O4  SIA C1001     -38.985  43.591  22.714  1.00 27.74    -0.221 OA
HETATM    8  C5  SIA C1001     -39.481  41.815  24.284  1.00 27.71     0.166 C 
HETATM    9  N5  SIA C1001     -40.117  42.809  25.110  1.00 25.75    -0.235 NA
HETATM   10  C6  SIA C1001     -40.198  40.449  24.450  1.00 27.96     0.176 C 
HETATM   11  O6  SIA C1001     -39.790  39.512  23.447  1.00 26.35    -0.325 OA
HETATM   12  C7  SIA C1001     -40.090  39.798  25.820  1.00 26.98     0.214 C 
HETATM   13  O7  SIA C1001     -38.753  39.902  26.274  1.00 25.74    -0.218 OA
HETATM   14  C8  SIA C1001     -40.596  38.353  25.775  1.00 27.81     0.218 C 
HETATM   15  O8  SIA C1001     -41.883  38.277  25.175  1.00 27.64    -0.218 OA
HETATM   16  C9  SIA C1001     -40.801  37.743  27.154  1.00 28.76     0.218 C 
HETATM   17  O9  SIA C1001     -41.225  36.375  27.031  1.00 25.96    -0.218 OA
HETATM   18  C10 SIA C1001     -39.673  43.089  26.316  1.00 26.15     0.252 C 
HETATM   19  O10 SIA C1001     -38.725  42.520  26.845  1.00 27.52    -0.271 OA
HETATM   20  C11 SIA C1001     -40.453  44.154  27.012  1.00 25.91     0.100 C 
HETATM   21  C1  GAL C1002     -36.573  37.189  19.826  1.00 42.56     0.270 C 
HETATM   22  C2  GAL C1002     -37.812  38.125  19.903  1.00 38.39     0.238 C 
HETATM   23  O2  GAL C1002     -37.587  39.403  19.378  1.00 35.49    -0.215 OA
HETATM   24  C3  GAL C1002     -38.287  38.390  21.329  1.00 32.50     0.186 C 
HETATM   25  O3  GAL C1002     -39.620  38.847  21.220  1.00 29.89    -0.324 OA
HETATM   26  C4  GAL C1002     -38.219  37.145  22.221  1.00 32.62     0.211 C 
HETATM   27  O4  GAL C1002     -39.207  36.216  21.845  1.00 31.61    -0.218 OA
HETATM   28  C5  GAL C1002     -36.906  36.409  22.099  1.00 32.94     0.184 C 
HETATM   29  O5  GAL C1002     -36.759  36.115  20.732  1.00 37.12    -0.326 OA
HETATM   30  C6  GAL C1002     -37.038  35.086  22.908  1.00 32.14     0.214 C 
HETATM   31  O6  GAL C1002     -35.905  34.280  22.715  1.00 30.07    -0.218 OA
HETATM   32  C1  NAG C1003     -32.741  35.913  17.244  1.00 69.25     0.294 C 
HETATM   33  O1  NAG C1003     -32.154  36.641  16.214  1.00 64.12    -0.188 OA
HETATM   34  C2  NAG C1003     -33.948  36.727  17.724  1.00 65.91     0.195 C 
HETATM   35  N2  NAG C1003     -33.498  37.590  18.792  1.00 74.96    -0.232 NA
HETATM   36  C3  NAG C1003     -35.055  35.935  18.412  1.00 60.49     0.178 C 
HETATM   37  O3  NAG C1003     -36.290  36.681  18.479  1.00 50.89    -0.327 OA
HETATM   38  C4  NAG C1003     -35.165  34.498  17.893  1.00 61.41     0.211 C 
HETATM   39  O4  NAG C1003     -35.978  33.816  18.836  1.00 69.67    -0.218 OA
HETATM   40  C5  NAG C1003     -33.758  33.863  17.725  1.00 68.17     0.184 C 
HETATM   41  O5  NAG C1003     -33.049  34.610  16.754  1.00 70.44    -0.325 OA
HETATM   42  C6  NAG C1003     -33.724  32.386  17.331  1.00 66.34     0.214 C 
HETATM   43  O6  NAG C1003     -34.354  32.312  16.079  1.00 64.10    -0.218 OA
HETATM   44  C7  NAG C1003     -33.507  38.917  18.731  1.00 80.23     0.252 C 
HETATM   45  O7  NAG C1003     -33.880  39.501  17.712  1.00 82.55    -0.271 OA
HETATM   46  C8  NAG C1003     -33.020  39.664  19.961  1.00 75.65     0.100 C 
ENDROOT
TORSDOF 12
ENDMDL
MODEL 6
REMARK VINA RESULT:      -3.2      2.529      4.303
REMARK  0 active torsions:
REMARK  status: ('A' for Active; 'I' for Inactive)
REMARK       I    between atoms: C1_1  and  C2_4 
REMARK       I    between atoms: C2_4  and  O3_21 
REMARK       I    between atoms: C5_8  and  N5_11 
REMARK       I    between atoms: C10_12  and  N5_11 
REMARK       I    between atoms: C6_9  and  C7_15 
REMARK       I    between atoms: C7_15  and  C8_17 
REMARK       I    between atoms: C8_17  and  C9_19 
REMARK       I    between atoms: C1_24  and  O3_30 
REMARK       I    between atoms: C3_22  and  O3_21 
REMARK       I    between atoms: C5_27  and  C6_45 
REMARK       I    between atoms: C2_32  and  N2_39 
REMARK       I    between atoms: C7_40  and  N2_39 
REMARK       I    between atoms: C3_31  and  O3_30 
REMARK       I    between atoms: C5_36  and  C6_43 
ROOT
HETATM    1  C1  SIA C1001     -37.574  36.534  17.095  1.00 29.87     0.240 C 
HETATM    2  O1A SIA C1001     -36.842  36.794  16.142  1.00 27.54    -0.644 OA
HETATM    3  O1B SIA C1001     -38.753  36.133  16.888  1.00 32.56    -0.644 OA
HETATM    4  C2  SIA C1001     -37.053  36.690  18.514  1.00 28.70     0.271 C 
HETATM    5  C3  SIA C1001     -37.127  35.319  19.259  1.00 26.68     0.103 C 
HETATM    6  C4  SIA C1001     -36.229  34.296  18.600  1.00 27.13     0.182 C 
HETATM    7  O4  SIA C1001     -36.275  33.018  19.233  1.00 27.74    -0.221 OA
HETATM    8  C5  SIA C1001     -34.800  34.832  18.602  1.00 27.71     0.166 C 
HETATM    9  N5  SIA C1001     -34.064  33.875  17.817  1.00 25.75    -0.235 NA
HETATM   10  C6  SIA C1001     -34.744  36.229  17.929  1.00 27.96     0.176 C 
HETATM   11  O6  SIA C1001     -35.686  37.135  18.510  1.00 26.35    -0.325 OA
HETATM   12  C7  SIA C1001     -33.375  36.891  17.874  1.00 26.98     0.214 C 
HETATM   13  O7  SIA C1001     -32.741  36.737  19.130  1.00 25.74    -0.218 OA
HETATM   14  C8  SIA C1001     -33.499  38.355  17.441  1.00 27.81     0.218 C 
HETATM   15  O8  SIA C1001     -34.272  38.476  16.254  1.00 27.64    -0.218 OA
HETATM   16  C9  SIA C1001     -32.165  38.989  17.074  1.00 28.76     0.218 C 
HETATM   17  O9  SIA C1001     -32.354  40.372  16.730  1.00 25.96    -0.218 OA
HETATM   18  C10 SIA C1001     -32.807  33.591  18.078  1.00 26.15     0.252 C 
HETATM   19  O10 SIA C1001     -32.155  34.127  18.968  1.00 27.52    -0.271 OA
HETATM   20  C11 SIA C1001     -32.218  32.568  17.165  1.00 25.91     0.100 C 
HETATM   21  C1  GAL C1002     -38.842  39.280  22.291  1.00 42.56     0.270 C 
HETATM   22  C2  GAL C1002     -38.931  38.397  21.015  1.00 38.39     0.238 C 
HETATM   23  O2  GAL C1002     -39.413  37.104  21.255  1.00 35.49    -0.215 OA
HETATM   24  C3  GAL C1002     -37.583  38.169  20.337  1.00 32.50     0.186 C 
HETATM   25  O3  GAL C1002     -37.872  37.766  19.013  1.00 29.89    -0.324 OA
HETATM   26  C4  GAL C1002     -36.697  39.421  20.335  1.00 32.62     0.211 C 
HETATM   27  O4  GAL C1002     -37.212  40.385  19.449  1.00 31.61    -0.218 OA
HETATM   28  C5  GAL C1002     -36.641  40.100  21.682  1.00 32.94     0.184 C 
HETATM   29  O5  GAL C1002     -37.976  40.372  22.029  1.00 37.12    -0.326 OA
HETATM   30  C6  GAL C1002     -35.867  41.437  21.496  1.00 32.14     0.214 C 
HETATM   31  O6  GAL C1002     -35.906  42.194  22.678  1.00 30.07    -0.218 OA
HETATM   32  C1  NAG C1003     -40.877  40.365  26.494  1.00 69.25     0.294 C 
HETATM   33  O1  NAG C1003     -41.812  39.601  27.186  1.00 64.12    -0.188 OA
HETATM   34  C2  NAG C1003     -40.564  39.608  25.199  1.00 65.91     0.195 C 
HETATM   35  N2  NAG C1003     -39.439  38.739  25.459  1.00 74.96    -0.232 NA
HETATM   36  C3  NAG C1003     -40.040  40.453  24.042  1.00 60.49     0.178 C 
HETATM   37  O3  NAG C1003     -40.140  39.759  22.779  1.00 50.89    -0.327 OA
HETATM   38  C4  NAG C1003     -40.578  41.887  24.066  1.00 61.41     0.211 C 
HETATM   39  O4  NAG C1003     -39.761  42.613  23.161  1.00 69.67    -0.218 OA
HETATM   40  C5  NAG C1003     -40.554  42.461  25.508  1.00 68.17     0.184 C 
HETATM   41  O5  NAG C1003     -41.413  41.674  26.312  1.00 70.44    -0.325 OA
HETATM   42  C6  NAG C1003     -40.948  43.931  25.659  1.00 66.34     0.214 C 
HETATM   43  O6  NAG C1003     -42.276  44.015  25.211  1.00 64.10    -0.218 OA
HETATM   44  C7  NAG C1003     -39.492  37.414  25.403  1.00 80.23     0.252 C 
HETATM   45  O7  NAG C1003     -40.550  36.834  25.149  1.00 82.55    -0.271 OA
HETATM   46  C8  NAG C1003     -38.202  36.661  25.683  1.00 75.65     0.100 C 
ENDROOT
TORSDOF 12
ENDMDL
