REMARK  0 active torsions:
REMARK  status: ('A' for Active; 'I' for Inactive)
REMARK       I    between atoms: C1_1  and  C2_4 
REMARK       I    between atoms: C2_4  and  O3_21 
REMARK       I    between atoms: C5_8  and  N5_11 
REMARK       I    between atoms: C10_12  and  N5_11 
REMARK       I    between atoms: C6_9  and  C7_15 
REMARK       I    between atoms: C7_15  and  C8_17 
REMARK       I    between atoms: C8_17  and  C9_19 
REMARK       I    between atoms: C1_24  and  O3_30 
REMARK       I    between atoms: C3_22  and  O3_21 
REMARK       I    between atoms: C5_27  and  C6_45 
REMARK       I    between atoms: C2_32  and  N2_39 
REMARK       I    between atoms: C7_40  and  N2_39 
REMARK       I    between atoms: C3_31  and  O3_30 
REMARK       I    between atoms: C5_36  and  C6_43 
ROOT
HETATM    1  C1  SIA C1001     -37.201  33.613  20.943  1.00 29.87     0.240 C 
HETATM    2  O1A SIA C1001     -37.858  33.062  20.062  1.00 27.54    -0.644 OA
HETATM    3  O1B SIA C1001     -37.040  33.040  22.056  1.00 32.56    -0.644 OA
HETATM    4  C2  SIA C1001     -36.583  34.977  20.684  1.00 28.70     0.271 C 
HETATM    5  C3  SIA C1001     -35.032  34.895  20.851  1.00 26.68     0.103 C 
HETATM    6  C4  SIA C1001     -34.425  33.965  19.824  1.00 27.13     0.182 C 
HETATM    7  O4  SIA C1001     -33.009  33.841  19.946  1.00 27.74    -0.221 OA
HETATM    8  C5  SIA C1001     -34.790  34.476  18.432  1.00 27.71     0.166 C 
HETATM    9  N5  SIA C1001     -34.315  33.446  17.544  1.00 25.75    -0.235 NA
HETATM   10  C6  SIA C1001     -36.328  34.628  18.296  1.00 27.96     0.176 C 
HETATM   11  O6  SIA C1001     -36.876  35.426  19.350  1.00 26.35    -0.325 OA
HETATM   12  C7  SIA C1001     -36.834  35.145  16.958  1.00 26.98     0.214 C 
HETATM   13  O7  SIA C1001     -36.023  36.232  16.550  1.00 25.74    -0.218 OA
HETATM   14  C8  SIA C1001     -38.320  35.505  17.043  1.00 27.81     0.218 C 
HETATM   15  O8  SIA C1001     -39.077  34.437  17.598  1.00 27.64    -0.218 OA
HETATM   16  C9  SIA C1001     -38.962  35.738  15.683  1.00 28.76     0.218 C 
HETATM   17  O9  SIA C1001     -40.338  36.121  15.846  1.00 25.96    -0.218 OA
HETATM   18  C10 SIA C1001     -33.855  33.729  16.345  1.00 26.15     0.252 C 
HETATM   19  O10 SIA C1001     -33.822  34.861  15.874  1.00 27.52    -0.271 OA
HETATM   20  C11 SIA C1001     -33.398  32.534  15.578  1.00 25.91     0.100 C 
HETATM   21  C1  GAL C1002     -37.018  39.192  23.178  1.00 42.56     0.270 C 
HETATM   22  C2  GAL C1002     -36.910  37.649  23.018  1.00 38.39     0.238 C 
HETATM   23  O2  GAL C1002     -35.709  37.114  23.499  1.00 35.49    -0.215 OA
HETATM   24  C3  GAL C1002     -36.967  37.183  21.566  1.00 32.50     0.186 C 
HETATM   25  O3  GAL C1002     -37.310  35.812  21.607  1.00 29.89    -0.324 OA
HETATM   26  C4  GAL C1002     -37.986  37.965  20.728  1.00 32.62     0.211 C 
HETATM   27  O4  GAL C1002     -39.298  37.623  21.105  1.00 31.61    -0.218 OA
HETATM   28  C5  GAL C1002     -37.885  39.458  20.928  1.00 32.94     0.184 C 
HETATM   29  O5  GAL C1002     -38.032  39.669  22.310  1.00 37.12    -0.326 OA
HETATM   30  C6  GAL C1002     -39.077  40.110  20.169  1.00 32.14     0.214 C 
HETATM   31  O6  GAL C1002     -39.132  41.487  20.436  1.00 30.07    -0.218 OA
HETATM   32  C1  NAG C1003     -35.961  42.958  25.949  1.00 69.25     0.294 C 
HETATM   33  O1  NAG C1003     -35.016  42.999  26.970  1.00 64.12    -0.188 OA
HETATM   34  C2  NAG C1003     -35.944  41.530  25.393  1.00 65.91     0.195 C 
HETATM   35  N2  NAG C1003     -34.990  41.493  24.308  1.00 74.96    -0.232 NA
HETATM   36  C3  NAG C1003     -37.221  41.070  24.697  1.00 60.49     0.178 C 
HETATM   37  O3  NAG C1003     -37.270  39.634  24.554  1.00 50.89    -0.327 OA
HETATM   38  C4  NAG C1003     -38.478  41.733  25.269  1.00 61.41     0.211 C 
HETATM   39  O4  NAG C1003     -39.506  41.473  24.326  1.00 69.67    -0.218 OA
HETATM   40  C5  NAG C1003     -38.240  43.247  25.515  1.00 68.17     0.184 C 
HETATM   41  O5  NAG C1003     -37.214  43.383  26.480  1.00 70.44    -0.325 OA
HETATM   42  C6  NAG C1003     -39.454  44.059  25.969  1.00 66.34     0.214 C 
HETATM   43  O6  NAG C1003     -39.842  43.505  27.199  1.00 64.10    -0.218 OA
HETATM   44  C7  NAG C1003     -33.882  40.761  24.314  1.00 80.23     0.252 C 
HETATM   45  O7  NAG C1003     -33.582  40.077  25.295  1.00 82.55    -0.271 OA
HETATM   46  C8  NAG C1003     -33.007  40.827  23.074  1.00 75.65     0.100 C 
ENDROOT
TORSDOF 12
