MODEL 1
REMARK VINA RESULT:      -6.1      0.000      0.000
REMARK  0 active torsions:
REMARK  status: ('A' for Active; 'I' for Inactive)
REMARK       I    between atoms: C1_1  and  C2_4 
REMARK       I    between atoms: C2_4  and  O3_21 
REMARK       I    between atoms: C5_8  and  N5_11 
REMARK       I    between atoms: C10_12  and  N5_11 
REMARK       I    between atoms: C6_9  and  C7_15 
REMARK       I    between atoms: C7_15  and  C8_17 
REMARK       I    between atoms: C8_17  and  C9_19 
REMARK       I    between atoms: C1_24  and  O3_30 
REMARK       I    between atoms: C3_22  and  O3_21 
REMARK       I    between atoms: C5_27  and  C6_45 
REMARK       I    between atoms: C2_32  and  N2_39 
REMARK       I    between atoms: C7_40  and  N2_39 
REMARK       I    between atoms: C3_31  and  O3_30 
REMARK       I    between atoms: C5_36  and  C6_43 
ROOT
HETATM    1  C1  SIA C1001     -41.555  39.068  21.627  1.00 29.87     0.240 C 
HETATM    2  O1A SIA C1001     -42.278  38.778  22.578  1.00 27.54    -0.644 OA
HETATM    3  O1B SIA C1001     -42.065  39.257  20.487  1.00 32.56    -0.644 OA
HETATM    4  C2  SIA C1001     -40.055  39.204  21.830  1.00 28.70     0.271 C 
HETATM    5  C3  SIA C1001     -39.597  40.645  21.439  1.00 26.68     0.103 C 
HETATM    6  C4  SIA C1001     -40.230  41.679  22.344  1.00 27.13     0.182 C 
HETATM    7  O4  SIA C1001     -39.857  43.016  22.016  1.00 27.74    -0.221 OA
HETATM    8  C5  SIA C1001     -39.843  41.363  23.787  1.00 27.71     0.166 C 
HETATM    9  N5  SIA C1001     -40.620  42.289  24.570  1.00 25.75    -0.235 NA
HETATM   10  C6  SIA C1001     -40.232  39.905  24.146  1.00 27.96     0.176 C 
HETATM   11  O6  SIA C1001     -39.702  38.968  23.203  1.00 26.35    -0.325 OA
HETATM   12  C7  SIA C1001     -39.889  39.449  25.556  1.00 26.98     0.214 C 
HETATM   13  O7  SIA C1001     -38.578  39.880  25.872  1.00 25.74    -0.218 OA
HETATM   14  C8  SIA C1001     -40.071  37.935  25.695  1.00 27.81     0.218 C 
HETATM   15  O8  SIA C1001     -41.350  37.525  25.227  1.00 27.64    -0.218 OA
HETATM   16  C9  SIA C1001     -40.041  37.454  27.139  1.00 28.76     0.218 C 
HETATM   17  O9  SIA C1001     -40.165  36.023  27.186  1.00 25.96    -0.218 OA
HETATM   18  C10 SIA C1001     -40.164  42.789  25.697  1.00 26.15     0.252 C 
HETATM   19  O10 SIA C1001     -39.079  42.494  26.188  1.00 27.52    -0.271 OA
HETATM   20  C11 SIA C1001     -41.105  43.739  26.359  1.00 25.91     0.100 C 
HETATM   21  C1  GAL C1002     -36.321  36.975  19.536  1.00 42.56     0.270 C 
HETATM   22  C2  GAL C1002     -37.725  37.635  19.638  1.00 38.39     0.238 C 
HETATM   23  O2  GAL C1002     -37.821  38.865  18.975  1.00 35.49    -0.215 OA
HETATM   24  C3  GAL C1002     -38.144  37.953  21.070  1.00 32.50     0.186 C 
HETATM   25  O3  GAL C1002     -39.549  38.107  21.043  1.00 29.89    -0.324 OA
HETATM   26  C4  GAL C1002     -37.744  36.858  22.066  1.00 32.62     0.211 C 
HETATM   27  O4  GAL C1002     -38.531  35.707  21.873  1.00 31.61    -0.218 OA
HETATM   28  C5  GAL C1002     -36.315  36.403  21.893  1.00 32.94     0.184 C 
HETATM   29  O5  GAL C1002     -36.204  35.995  20.552  1.00 37.12    -0.326 OA
HETATM   30  C6  GAL C1002     -36.100  35.181  22.832  1.00 32.14     0.214 C 
HETATM   31  O6  GAL C1002     -34.835  34.613  22.612  1.00 30.07    -0.218 OA
HETATM   32  C1  NAG C1003     -32.495  36.245  16.741  1.00 69.25     0.294 C 
HETATM   33  O1  NAG C1003     -32.154  36.960  15.596  1.00 64.12    -0.188 OA
HETATM   34  C2  NAG C1003     -33.813  36.838  17.251  1.00 65.91     0.195 C 
HETATM   35  N2  NAG C1003     -33.488  37.891  18.186  1.00 74.96    -0.232 NA
HETATM   36  C3  NAG C1003     -34.671  35.915  18.111  1.00 60.49     0.178 C 
HETATM   37  O3  NAG C1003     -36.030  36.390  18.222  1.00 50.89    -0.327 OA
HETATM   38  C4  NAG C1003     -34.501  34.438  17.744  1.00 61.41     0.211 C 
HETATM   39  O4  NAG C1003     -35.079  33.711  18.817  1.00 69.67    -0.218 OA
HETATM   40  C5  NAG C1003     -33.006  34.096  17.506  1.00 68.17     0.184 C 
HETATM   41  O5  NAG C1003     -32.546  34.860  16.407  1.00 70.44    -0.325 OA
HETATM   42  C6  NAG C1003     -32.679  32.623  17.252  1.00 66.34     0.214 C 
HETATM   43  O6  NAG C1003     -33.365  32.280  16.077  1.00 64.10    -0.218 OA
HETATM   44  C7  NAG C1003     -33.788  39.171  18.002  1.00 80.23     0.252 C 
HETATM   45  O7  NAG C1003     -34.350  39.546  16.970  1.00 82.55    -0.271 OA
HETATM   46  C8  NAG C1003     -33.390  40.137  19.105  1.00 75.65     0.100 C 
ENDROOT
TORSDOF 12
ENDMDL
MODEL 2
REMARK VINA RESULT:      -6.1      2.658      9.819
REMARK  0 active torsions:
REMARK  status: ('A' for Active; 'I' for Inactive)
REMARK       I    between atoms: C1_1  and  C2_4 
REMARK       I    between atoms: C2_4  and  O3_21 
REMARK       I    between atoms: C5_8  and  N5_11 
REMARK       I    between atoms: C10_12  and  N5_11 
REMARK       I    between atoms: C6_9  and  C7_15 
REMARK       I    between atoms: C7_15  and  C8_17 
REMARK       I    between atoms: C8_17  and  C9_19 
REMARK       I    between atoms: C1_24  and  O3_30 
REMARK       I    between atoms: C3_22  and  O3_21 
REMARK       I    between atoms: C5_27  and  C6_45 
REMARK       I    between atoms: C2_32  and  N2_39 
REMARK       I    between atoms: C7_40  and  N2_39 
REMARK       I    between atoms: C3_31  and  O3_30 
REMARK       I    between atoms: C5_36  and  C6_43 
ROOT
HETATM    1  C1  SIA C1001     -36.849  33.323  22.358  1.00 29.87     0.240 C 
HETATM    2  O1A SIA C1001     -37.272  32.563  21.489  1.00 27.54    -0.644 OA
HETATM    3  O1B SIA C1001     -36.772  32.927  23.554  1.00 32.56    -0.644 OA
HETATM    4  C2  SIA C1001     -36.417  34.732  21.985  1.00 28.70     0.271 C 
HETATM    5  C3  SIA C1001     -34.916  34.941  22.362  1.00 26.68     0.103 C 
HETATM    6  C4  SIA C1001     -34.024  34.012  21.569  1.00 27.13     0.182 C 
HETATM    7  O4  SIA C1001     -32.640  34.152  21.890  1.00 27.74    -0.221 OA
HETATM    8  C5  SIA C1001     -34.247  34.278  20.082  1.00 27.71     0.166 C 
HETATM    9  N5  SIA C1001     -33.490  33.246  19.422  1.00 25.75    -0.235 NA
HETATM   10  C6  SIA C1001     -35.752  34.143  19.727  1.00 27.96     0.176 C 
HETATM   11  O6  SIA C1001     -36.570  34.957  20.574  1.00 26.35    -0.325 OA
HETATM   12  C7  SIA C1001     -36.123  34.397  18.274  1.00 26.98     0.214 C 
HETATM   13  O7  SIA C1001     -35.437  35.550  17.820  1.00 25.74    -0.218 OA
HETATM   14  C8  SIA C1001     -37.642  34.502  18.112  1.00 27.81     0.218 C 
HETATM   15  O8  SIA C1001     -38.300  33.394  18.714  1.00 27.64    -0.218 OA
HETATM   16  C9  SIA C1001     -38.098  34.452  16.661  1.00 28.76     0.218 C 
HETATM   17  O9  SIA C1001     -39.525  34.607  16.587  1.00 25.96    -0.218 OA
HETATM   18  C10 SIA C1001     -32.903  33.456  18.264  1.00 26.15     0.252 C 
HETATM   19  O10 SIA C1001     -32.974  34.510  17.642  1.00 27.52    -0.271 OA
HETATM   20  C11 SIA C1001     -32.156  32.273  17.745  1.00 25.91     0.100 C 
HETATM   21  C1  GAL C1002     -37.871  39.080  23.762  1.00 42.56     0.270 C 
HETATM   22  C2  GAL C1002     -37.503  37.571  23.843  1.00 38.39     0.238 C 
HETATM   23  O2  GAL C1002     -36.321  37.316  24.548  1.00 35.49    -0.215 OA
HETATM   24  C3  GAL C1002     -37.266  36.929  22.480  1.00 32.50     0.186 C 
HETATM   25  O3  GAL C1002     -37.396  35.534  22.675  1.00 29.89    -0.324 OA
HETATM   26  C4  GAL C1002     -38.255  37.414  21.412  1.00 32.62     0.211 C 
HETATM   27  O4  GAL C1002     -39.540  36.898  21.662  1.00 31.61    -0.218 OA
HETATM   28  C5  GAL C1002     -38.417  38.915  21.404  1.00 32.94     0.184 C 
HETATM   29  O5  GAL C1002     -38.803  39.264  22.709  1.00 37.12    -0.326 OA
HETATM   30  C6  GAL C1002     -39.566  39.252  20.410  1.00 32.14     0.214 C 
HETATM   31  O6  GAL C1002     -39.873  40.621  20.464  1.00 30.07    -0.218 OA
HETATM   32  C1  NAG C1003     -37.841  43.282  26.068  1.00 69.25     0.294 C 
HETATM   33  O1  NAG C1003     -37.080  43.611  27.186  1.00 64.12    -0.188 OA
HETATM   34  C2  NAG C1003     -37.519  41.822  25.733  1.00 65.91     0.195 C 
HETATM   35  N2  NAG C1003     -36.418  41.818  24.798  1.00 74.96    -0.232 NA
HETATM   36  C3  NAG C1003     -38.590  41.066  24.952  1.00 60.49     0.178 C 
HETATM   37  O3  NAG C1003     -38.394  39.636  25.014  1.00 50.89    -0.327 OA
HETATM   38  C4  NAG C1003     -40.006  41.565  25.254  1.00 61.41     0.211 C 
HETATM   39  O4  NAG C1003     -40.826  41.018  24.233  1.00 69.67    -0.218 OA
HETATM   40  C5  NAG C1003     -40.045  43.116  25.305  1.00 68.17     0.184 C 
HETATM   41  O5  NAG C1003     -39.210  43.545  26.365  1.00 70.44    -0.325 OA
HETATM   42  C6  NAG C1003     -41.424  43.754  25.475  1.00 66.34     0.214 C 
HETATM   43  O6  NAG C1003     -41.904  43.296  26.712  1.00 64.10    -0.218 OA
HETATM   44  C7  NAG C1003     -35.224  41.296  25.053  1.00 80.23     0.252 C 
HETATM   45  O7  NAG C1003     -34.974  40.800  26.154  1.00 82.55    -0.271 OA
HETATM   46  C8  NAG C1003     -34.192  41.361  23.941  1.00 75.65     0.100 C 
ENDROOT
TORSDOF 12
ENDMDL
MODEL 3
REMARK VINA RESULT:      -5.5      2.774      4.880
REMARK  0 active torsions:
REMARK  status: ('A' for Active; 'I' for Inactive)
REMARK       I    between atoms: C1_1  and  C2_4 
REMARK       I    between atoms: C2_4  and  O3_21 
REMARK       I    between atoms: C5_8  and  N5_11 
REMARK       I    between atoms: C10_12  and  N5_11 
REMARK       I    between atoms: C6_9  and  C7_15 
REMARK       I    between atoms: C7_15  and  C8_17 
REMARK       I    between atoms: C8_17  and  C9_19 
REMARK       I    between atoms: C1_24  and  O3_30 
REMARK       I    between atoms: C3_22  and  O3_21 
REMARK       I    between atoms: C5_27  and  C6_45 
REMARK       I    between atoms: C2_32  and  N2_39 
REMARK       I    between atoms: C7_40  and  N2_39 
REMARK       I    between atoms: C3_31  and  O3_30 
REMARK       I    between atoms: C5_36  and  C6_43 
ROOT
HETATM    1  C1  SIA C1001     -36.635  43.143  21.377  1.00 29.87     0.240 C 
HETATM    2  O1A SIA C1001     -37.415  43.981  20.931  1.00 27.54    -0.644 OA
HETATM    3  O1B SIA C1001     -35.426  43.451  21.570  1.00 32.56    -0.644 OA
HETATM    4  C2  SIA C1001     -37.132  41.743  21.699  1.00 28.70     0.271 C 
HETATM    5  C3  SIA C1001     -36.894  41.432  23.211  1.00 26.68     0.103 C 
HETATM    6  C4  SIA C1001     -37.697  42.367  24.089  1.00 27.13     0.182 C 
HETATM    7  O4  SIA C1001     -37.500  42.136  25.483  1.00 27.74    -0.221 OA
HETATM    8  C5  SIA C1001     -39.174  42.216  23.734  1.00 27.71     0.166 C 
HETATM    9  N5  SIA C1001     -39.826  43.251  24.494  1.00 25.75    -0.235 NA
HETATM   10  C6  SIA C1001     -39.395  42.451  22.216  1.00 27.96     0.176 C 
HETATM   11  O6  SIA C1001     -38.538  41.624  21.423  1.00 26.35    -0.325 OA
HETATM   12  C7  SIA C1001     -40.826  42.317  21.719  1.00 26.98     0.214 C 
HETATM   13  O7  SIA C1001     -41.407  41.164  22.301  1.00 25.74    -0.218 OA
HETATM   14  C8  SIA C1001     -40.868  42.301  20.188  1.00 27.81     0.218 C 
HETATM   15  O8  SIA C1001     -40.144  43.397  19.642  1.00 27.64    -0.218 OA
HETATM   16  C9  SIA C1001     -42.270  42.474  19.623  1.00 28.76     0.218 C 
HETATM   17  O9  SIA C1001     -42.237  42.397  18.188  1.00 25.96    -0.218 OA
HETATM   18  C10 SIA C1001     -41.039  43.092  24.976  1.00 26.15     0.252 C 
HETATM   19  O10 SIA C1001     -41.720  42.088  24.797  1.00 27.52    -0.271 OA
HETATM   20  C11 SIA C1001     -41.540  44.268  25.745  1.00 25.91     0.100 C 
HETATM   21  C1  GAL C1002     -35.526  37.363  20.147  1.00 42.56     0.270 C 
HETATM   22  C2  GAL C1002     -35.378  38.841  20.604  1.00 38.39     0.238 C 
HETATM   23  O2  GAL C1002     -34.757  38.987  21.850  1.00 35.49    -0.215 OA
HETATM   24  C3  GAL C1002     -36.712  39.563  20.769  1.00 32.50     0.186 C 
HETATM   25  O3  GAL C1002     -36.417  40.946  20.734  1.00 29.89    -0.324 OA
HETATM   26  C4  GAL C1002     -37.724  39.204  19.674  1.00 32.62     0.211 C 
HETATM   27  O4  GAL C1002     -37.337  39.766  18.443  1.00 31.61    -0.218 OA
HETATM   28  C5  GAL C1002     -37.816  37.717  19.427  1.00 32.94     0.184 C 
HETATM   29  O5  GAL C1002     -36.508  37.299  19.126  1.00 37.12    -0.326 OA
HETATM   30  C6  GAL C1002     -38.731  37.508  18.186  1.00 32.14     0.214 C 
HETATM   31  O6  GAL C1002     -38.740  36.156  17.808  1.00 30.07    -0.218 OA
HETATM   32  C1  NAG C1003     -33.506  33.015  20.121  1.00 69.25     0.294 C 
HETATM   33  O1  NAG C1003     -32.478  32.572  20.949  1.00 64.12    -0.188 OA
HETATM   34  C2  NAG C1003     -33.772  34.477  20.497  1.00 65.91     0.195 C 
HETATM   35  N2  NAG C1003     -34.792  34.489  21.520  1.00 74.96    -0.232 NA
HETATM   36  C3  NAG C1003     -34.412  35.339  19.413  1.00 60.49     0.178 C 
HETATM   37  O3  NAG C1003     -34.273  36.749  19.693  1.00 50.89    -0.327 OA
HETATM   38  C4  NAG C1003     -34.027  34.892  17.999  1.00 61.41     0.211 C 
HETATM   39  O4  NAG C1003     -34.939  35.550  17.133  1.00 69.67    -0.218 OA
HETATM   40  C5  NAG C1003     -34.073  33.346  17.877  1.00 68.17     0.184 C 
HETATM   41  O5  NAG C1003     -33.115  32.803  18.767  1.00 70.44    -0.325 OA
HETATM   42  C6  NAG C1003     -33.832  32.768  16.482  1.00 66.34     0.214 C 
HETATM   43  O6  NAG C1003     -32.533  33.164  16.127  1.00 64.10    -0.218 OA
HETATM   44  C7  NAG C1003     -34.602  34.931  22.758  1.00 80.23     0.252 C 
HETATM   45  O7  NAG C1003     -33.496  35.337  23.121  1.00 82.55    -0.271 OA
HETATM   46  C8  NAG C1003     -35.798  34.890  23.694  1.00 75.65     0.100 C 
ENDROOT
TORSDOF 12
ENDMDL
