MODEL 1
REMARK VINA RESULT:      -6.5      0.000      0.000
REMARK  0 active torsions:
REMARK  status: ('A' for Active; 'I' for Inactive)
REMARK       I    between atoms: C1_3964  and  C2_3965 
REMARK       I    between atoms: C2_3965  and  O6_3995 
REMARK       I    between atoms: C5_3968  and  N5_3975 
REMARK       I    between atoms: C6_3969  and  C7_3970 
REMARK       I    between atoms: C7_3970  and  C8_3971 
REMARK       I    between atoms: C8_3971  and  C9_3972 
REMARK       I    between atoms: C10_3973  and  N5_3975 
REMARK       I    between atoms: C5_3988  and  C6_3989 
REMARK       I    between atoms: C6_3989  and  O6_3995 
ROOT
HETATM    1  C1  SIA A 603     -41.003  38.175  19.394  1.00 97.87     0.240 C 
HETATM    2  C2  SIA A 603     -39.573  38.584  19.675  1.00108.65     0.271 C 
HETATM    3  C3  SIA A 603     -39.753  39.787  18.948  1.00101.59     0.103 C 
HETATM    4  C4  SIA A 603     -40.621  40.824  19.419  1.00 97.89     0.182 C 
HETATM    5  C5  SIA A 603     -40.264  41.356  20.764  1.00 90.71     0.166 C 
HETATM    6  C6  SIA A 603     -40.090  40.209  21.694  1.00 94.22     0.176 C 
HETATM    7  C7  SIA A 603     -39.512  40.498  22.943  1.00 95.96     0.214 C 
HETATM    8  C8  SIA A 603     -39.287  39.152  23.688  1.00 95.66     0.218 C 
HETATM    9  C9  SIA A 603     -39.015  39.354  25.184  1.00 86.65     0.218 C 
HETATM   10  C10 SIA A 603     -41.111  43.384  22.151  1.00 85.31     0.252 C 
HETATM   11  C11 SIA A 603     -42.278  44.268  22.553  1.00 84.13     0.100 C 
HETATM   12  N5  SIA A 603     -41.341  42.255  21.211  1.00 87.90    -0.235 NA
HETATM   13  O1A SIA A 603     -41.787  37.935  20.394  1.00 89.45    -0.644 OA
HETATM   14  O1B SIA A 603     -41.436  38.031  18.215  1.00 90.16    -0.644 OA
HETATM   15  O4  SIA A 603     -40.746  41.887  18.460  1.00 93.58    -0.221 OA
HETATM   16  O6  SIA A 603     -39.160  39.264  20.908  1.00 96.74    -0.325 OA
HETATM   17  O7  SIA A 603     -38.280  41.138  22.806  1.00 91.80    -0.218 OA
HETATM   18  O8  SIA A 603     -40.348  38.263  23.526  1.00 85.38    -0.218 OA
HETATM   19  O9  SIA A 603     -38.294  38.368  25.835  1.00 87.88    -0.218 OA
HETATM   20  O10 SIA A 603     -39.972  43.613  22.623  1.00 89.96    -0.271 OA
HETATM   21  C1  GAL A 604     -35.424  35.665  17.056  1.00159.95     0.303 C 
HETATM   22  C2  GAL A 604     -35.179  34.375  17.817  1.00158.93     0.244 C 
HETATM   23  C3  GAL A 604     -36.477  33.769  18.341  1.00146.87     0.220 C 
HETATM   24  C4  GAL A 604     -37.262  34.771  19.182  1.00134.70     0.215 C 
HETATM   25  C5  GAL A 604     -37.333  36.120  18.464  1.00131.58     0.180 C 
HETATM   26  C6  GAL A 604     -37.771  37.240  19.422  1.00107.43     0.178 C 
HETATM   27  O1  GAL A 604     -34.180  36.246  16.705  1.00171.21    -0.187 OA
HETATM   28  O2  GAL A 604     -34.558  33.455  16.940  1.00162.93    -0.215 OA
HETATM   29  O3  GAL A 604     -36.175  32.631  19.105  1.00139.56    -0.218 OA
HETATM   30  O4  GAL A 604     -36.653  34.944  20.443  1.00132.79    -0.218 OA
HETATM   31  O5  GAL A 604     -36.068  36.519  17.963  1.00150.70    -0.324 OA
HETATM   32  O6  GAL A 604     -38.568  38.187  18.724  1.00103.62    -0.324 OA
ENDROOT
TORSDOF 8
ENDMDL
MODEL 2
REMARK VINA RESULT:      -6.2      3.065      4.378
REMARK  0 active torsions:
REMARK  status: ('A' for Active; 'I' for Inactive)
REMARK       I    between atoms: C1_3964  and  C2_3965 
REMARK       I    between atoms: C2_3965  and  O6_3995 
REMARK       I    between atoms: C5_3968  and  N5_3975 
REMARK       I    between atoms: C6_3969  and  C7_3970 
REMARK       I    between atoms: C7_3970  and  C8_3971 
REMARK       I    between atoms: C8_3971  and  C9_3972 
REMARK       I    between atoms: C10_3973  and  N5_3975 
REMARK       I    between atoms: C5_3988  and  C6_3989 
REMARK       I    between atoms: C6_3989  and  O6_3995 
ROOT
HETATM    1  C1  SIA A 603     -38.921  37.471  18.610  1.00 97.87     0.240 C 
HETATM    2  C2  SIA A 603     -38.242  37.987  19.861  1.00108.65     0.271 C 
HETATM    3  C3  SIA A 603     -37.216  38.579  19.084  1.00101.59     0.103 C 
HETATM    4  C4  SIA A 603     -37.477  39.690  18.219  1.00 97.89     0.182 C 
HETATM    5  C5  SIA A 603     -38.033  40.886  18.911  1.00 90.71     0.166 C 
HETATM    6  C6  SIA A 603     -39.184  40.454  19.748  1.00 94.22     0.176 C 
HETATM    7  C7  SIA A 603     -39.681  41.398  20.666  1.00 95.96     0.214 C 
HETATM    8  C8  SIA A 603     -40.767  40.697  21.529  1.00 95.66     0.218 C 
HETATM    9  C9  SIA A 603     -41.634  41.702  22.299  1.00 86.65     0.218 C 
HETATM   10  C10 SIA A 603     -38.477  43.331  18.150  1.00 85.31     0.252 C 
HETATM   11  C11 SIA A 603     -38.906  44.272  17.039  1.00 84.13     0.100 C 
HETATM   12  N5  SIA A 603     -38.445  41.866  17.893  1.00 87.90    -0.235 NA
HETATM   13  O1A SIA A 603     -40.145  37.817  18.383  1.00 89.45    -0.644 OA
HETATM   14  O1B SIA A 603     -38.336  36.689  17.809  1.00 90.16    -0.644 OA
HETATM   15  O4  SIA A 603     -36.322  40.037  17.437  1.00 93.58    -0.221 OA
HETATM   16  O6  SIA A 603     -38.617  39.245  20.518  1.00 96.74    -0.325 OA
HETATM   17  O7  SIA A 603     -38.679  41.870  21.514  1.00 91.80    -0.218 OA
HETATM   18  O8  SIA A 603     -41.588  39.854  20.783  1.00 85.38    -0.218 OA
HETATM   19  O9  SIA A 603     -42.240  41.257  23.461  1.00 87.88    -0.218 OA
HETATM   20  O10 SIA A 603     -38.164  43.800  19.270  1.00 89.96    -0.271 OA
HETATM   21  C1  GAL A 604     -35.738  34.164  23.283  1.00159.95     0.303 C 
HETATM   22  C2  GAL A 604     -36.800  33.519  24.155  1.00158.93     0.244 C 
HETATM   23  C3  GAL A 604     -38.100  33.290  23.391  1.00146.87     0.220 C 
HETATM   24  C4  GAL A 604     -38.609  34.579  22.754  1.00134.70     0.215 C 
HETATM   25  C5  GAL A 604     -37.468  35.299  22.035  1.00131.58     0.180 C 
HETATM   26  C6  GAL A 604     -37.838  36.756  21.715  1.00107.43     0.178 C 
HETATM   27  O1  GAL A 604     -34.603  34.467  24.073  1.00171.21    -0.187 OA
HETATM   28  O2  GAL A 604     -36.304  32.276  24.611  1.00162.93    -0.215 OA
HETATM   29  O3  GAL A 604     -39.063  32.774  24.272  1.00139.56    -0.218 OA
HETATM   30  O4  GAL A 604     -39.157  35.433  23.735  1.00132.79    -0.218 OA
HETATM   31  O5  GAL A 604     -36.300  35.369  22.837  1.00150.70    -0.324 OA
HETATM   32  O6  GAL A 604     -37.254  37.142  20.479  1.00103.62    -0.324 OA
ENDROOT
TORSDOF 8
ENDMDL
MODEL 3
REMARK VINA RESULT:      -5.8      2.582      3.944
REMARK  0 active torsions:
REMARK  status: ('A' for Active; 'I' for Inactive)
REMARK       I    between atoms: C1_3964  and  C2_3965 
REMARK       I    between atoms: C2_3965  and  O6_3995 
REMARK       I    between atoms: C5_3968  and  N5_3975 
REMARK       I    between atoms: C6_3969  and  C7_3970 
REMARK       I    between atoms: C7_3970  and  C8_3971 
REMARK       I    between atoms: C8_3971  and  C9_3972 
REMARK       I    between atoms: C10_3973  and  N5_3975 
REMARK       I    between atoms: C5_3988  and  C6_3989 
REMARK       I    between atoms: C6_3989  and  O6_3995 
ROOT
HETATM    1  C1  SIA A 603     -38.424  37.865  21.087  1.00 97.87     0.240 C 
HETATM    2  C2  SIA A 603     -37.798  38.002  19.716  1.00108.65     0.271 C 
HETATM    3  C3  SIA A 603     -39.076  37.954  19.106  1.00101.59     0.103 C 
HETATM    4  C4  SIA A 603     -40.027  39.011  19.277  1.00 97.89     0.182 C 
HETATM    5  C5  SIA A 603     -39.546  40.346  18.822  1.00 90.71     0.166 C 
HETATM    6  C6  SIA A 603     -38.210  40.596  19.426  1.00 94.22     0.176 C 
HETATM    7  C7  SIA A 603     -37.488  41.692  18.918  1.00 95.96     0.214 C 
HETATM    8  C8  SIA A 603     -36.079  41.679  19.574  1.00 95.66     0.218 C 
HETATM    9  C9  SIA A 603     -35.342  43.013  19.392  1.00 86.65     0.218 C 
HETATM   10  C10 SIA A 603     -40.719  42.643  18.509  1.00 85.31     0.252 C 
HETATM   11  C11 SIA A 603     -41.759  43.633  19.004  1.00 84.13     0.100 C 
HETATM   12  N5  SIA A 603     -40.525  41.363  19.240  1.00 87.90    -0.235 NA
HETATM   13  O1A SIA A 603     -38.193  38.784  21.967  1.00 89.45    -0.644 OA
HETATM   14  O1B SIA A 603     -39.132  36.866  21.400  1.00 90.16    -0.644 OA
HETATM   15  O4  SIA A 603     -41.293  38.688  18.678  1.00 93.58    -0.221 OA
HETATM   16  O6  SIA A 603     -37.443  39.294  19.119  1.00 96.74    -0.325 OA
HETATM   17  O7  SIA A 603     -37.333  41.611  17.535  1.00 91.80    -0.218 OA
HETATM   18  O8  SIA A 603     -36.117  41.353  20.928  1.00 85.38    -0.218 OA
HETATM   19  O9  SIA A 603     -33.959  42.982  19.428  1.00 87.88    -0.218 OA
HETATM   20  O10 SIA A 603     -40.034  42.923  17.497  1.00 89.96    -0.271 OA
HETATM   21  C1  GAL A 604     -34.835  33.554  17.706  1.00159.95     0.303 C 
HETATM   22  C2  GAL A 604     -33.445  33.578  18.315  1.00158.93     0.244 C 
HETATM   23  C3  GAL A 604     -33.472  34.023  19.774  1.00146.87     0.220 C 
HETATM   24  C4  GAL A 604     -34.173  35.368  19.934  1.00134.70     0.215 C 
HETATM   25  C5  GAL A 604     -35.489  35.374  19.154  1.00131.58     0.180 C 
HETATM   26  C6  GAL A 604     -36.028  36.802  18.977  1.00107.43     0.178 C 
HETATM   27  O1  GAL A 604     -34.736  33.258  16.324  1.00171.21    -0.187 OA
HETATM   28  O2  GAL A 604     -32.905  32.273  18.238  1.00162.93    -0.215 OA
HETATM   29  O3  GAL A 604     -32.154  34.107  20.250  1.00139.56    -0.218 OA
HETATM   30  O4  GAL A 604     -33.350  36.416  19.470  1.00132.79    -0.218 OA
HETATM   31  O5  GAL A 604     -35.326  34.861  17.843  1.00150.70    -0.324 OA
HETATM   32  O6  GAL A 604     -37.448  36.790  19.020  1.00103.62    -0.324 OA
ENDROOT
TORSDOF 8
ENDMDL
MODEL 4
REMARK VINA RESULT:      -5.8      3.155      8.513
REMARK  0 active torsions:
REMARK  status: ('A' for Active; 'I' for Inactive)
REMARK       I    between atoms: C1_3964  and  C2_3965 
REMARK       I    between atoms: C2_3965  and  O6_3995 
REMARK       I    between atoms: C5_3968  and  N5_3975 
REMARK       I    between atoms: C6_3969  and  C7_3970 
REMARK       I    between atoms: C7_3970  and  C8_3971 
REMARK       I    between atoms: C8_3971  and  C9_3972 
REMARK       I    between atoms: C10_3973  and  N5_3975 
REMARK       I    between atoms: C5_3988  and  C6_3989 
REMARK       I    between atoms: C6_3989  and  O6_3995 
ROOT
HETATM    1  C1  SIA A 603     -34.257  38.367  19.825  1.00 97.87     0.240 C 
HETATM    2  C2  SIA A 603     -35.527  37.996  19.090  1.00108.65     0.271 C 
HETATM    3  C3  SIA A 603     -34.819  37.915  17.865  1.00101.59     0.103 C 
HETATM    4  C4  SIA A 603     -33.844  36.892  17.630  1.00 97.89     0.182 C 
HETATM    5  C5  SIA A 603     -34.375  35.505  17.742  1.00 90.71     0.166 C 
HETATM    6  C6  SIA A 603     -35.117  35.386  19.026  1.00 94.22     0.176 C 
HETATM    7  C7  SIA A 603     -35.897  34.228  19.194  1.00 95.96     0.214 C 
HETATM    8  C8  SIA A 603     -36.694  34.377  20.520  1.00 95.66     0.218 C 
HETATM    9  C9  SIA A 603     -37.283  33.044  20.997  1.00 86.65     0.218 C 
HETATM   10  C10 SIA A 603     -33.377  33.171  17.182  1.00 85.31     0.252 C 
HETATM   11  C11 SIA A 603     -32.154  32.272  17.149  1.00 84.13     0.100 C 
HETATM   12  N5  SIA A 603     -33.243  34.565  17.684  1.00 87.90    -0.235 NA
HETATM   13  O1A SIA A 603     -33.873  37.624  20.811  1.00 89.45    -0.644 OA
HETATM   14  O1B SIA A 603     -33.588  39.395  19.523  1.00 90.16    -0.644 OA
HETATM   15  O4  SIA A 603     -33.164  37.085  16.378  1.00 93.58    -0.221 OA
HETATM   16  O6  SIA A 603     -36.037  36.622  19.009  1.00 96.74    -0.325 OA
HETATM   17  O7  SIA A 603     -36.806  34.062  18.149  1.00 91.80    -0.218 OA
HETATM   18  O8  SIA A 603     -35.934  34.940  21.544  1.00 85.38    -0.218 OA
HETATM   19  O9  SIA A 603     -38.407  33.100  21.804  1.00 87.88    -0.218 OA
HETATM   20  O10 SIA A 603     -34.483  32.725  16.794  1.00 89.96    -0.271 OA
HETATM   21  C1  GAL A 604     -39.492  42.053  18.447  1.00159.95     0.303 C 
HETATM   22  C2  GAL A 604     -40.295  42.159  19.730  1.00158.93     0.244 C 
HETATM   23  C3  GAL A 604     -39.418  41.982  20.965  1.00146.87     0.220 C 
HETATM   24  C4  GAL A 604     -38.630  40.678  20.908  1.00134.70     0.215 C 
HETATM   25  C5  GAL A 604     -37.981  40.514  19.533  1.00131.58     0.180 C 
HETATM   26  C6  GAL A 604     -37.507  39.069  19.306  1.00107.43     0.178 C 
HETATM   27  O1  GAL A 604     -40.372  42.099  17.338  1.00171.21    -0.187 OA
HETATM   28  O2  GAL A 604     -40.900  43.437  19.770  1.00162.93    -0.215 OA
HETATM   29  O3  GAL A 604     -40.231  42.004  22.110  1.00139.56    -0.218 OA
HETATM   30  O4  GAL A 604     -39.474  39.576  21.161  1.00132.79    -0.218 OA
HETATM   31  O5  GAL A 604     -38.893  40.786  18.483  1.00150.70    -0.324 OA
HETATM   32  O6  GAL A 604     -36.313  39.068  18.536  1.00103.62    -0.324 OA
ENDROOT
TORSDOF 8
ENDMDL
MODEL 5
REMARK VINA RESULT:      -5.5      1.893      4.283
REMARK  0 active torsions:
REMARK  status: ('A' for Active; 'I' for Inactive)
REMARK       I    between atoms: C1_3964  and  C2_3965 
REMARK       I    between atoms: C2_3965  and  O6_3995 
REMARK       I    between atoms: C5_3968  and  N5_3975 
REMARK       I    between atoms: C6_3969  and  C7_3970 
REMARK       I    between atoms: C7_3970  and  C8_3971 
REMARK       I    between atoms: C8_3971  and  C9_3972 
REMARK       I    between atoms: C10_3973  and  N5_3975 
REMARK       I    between atoms: C5_3988  and  C6_3989 
REMARK       I    between atoms: C6_3989  and  O6_3995 
ROOT
HETATM    1  C1  SIA A 603     -36.857  39.481  22.108  1.00 97.87     0.240 C 
HETATM    2  C2  SIA A 603     -37.826  39.006  21.047  1.00108.65     0.271 C 
HETATM    3  C3  SIA A 603     -38.836  38.821  22.023  1.00101.59     0.103 C 
HETATM    4  C4  SIA A 603     -39.425  39.930  22.711  1.00 97.89     0.182 C 
HETATM    5  C5  SIA A 603     -40.076  40.928  21.818  1.00 90.71     0.166 C 
HETATM    6  C6  SIA A 603     -39.118  41.291  20.740  1.00 94.22     0.176 C 
HETATM    7  C7  SIA A 603     -39.639  42.030  19.662  1.00 95.96     0.214 C 
HETATM    8  C8  SIA A 603     -38.518  42.169  18.594  1.00 95.66     0.218 C 
HETATM    9  C9  SIA A 603     -38.835  43.255  17.557  1.00 86.65     0.218 C 
HETATM   10  C10 SIA A 603     -41.589  42.993  22.267  1.00 85.31     0.252 C 
HETATM   11  C11 SIA A 603     -41.913  44.178  23.160  1.00 84.13     0.100 C 
HETATM   12  N5  SIA A 603     -40.453  42.101  22.623  1.00 87.90    -0.235 NA
HETATM   13  O1A SIA A 603     -36.327  40.653  21.982  1.00 89.45    -0.644 OA
HETATM   14  O1B SIA A 603     -36.530  38.751  23.086  1.00 90.16    -0.644 OA
HETATM   15  O4  SIA A 603     -40.327  39.496  23.743  1.00 93.58    -0.221 OA
HETATM   16  O6  SIA A 603     -38.634  39.919  20.230  1.00 96.74    -0.325 OA
HETATM   17  O7  SIA A 603     -40.730  41.390  19.076  1.00 91.80    -0.218 OA
HETATM   18  O8  SIA A 603     -37.266  42.417  19.155  1.00 85.38    -0.218 OA
HETATM   19  O9  SIA A 603     -38.248  43.131  16.310  1.00 87.88    -0.218 OA
HETATM   20  O10 SIA A 603     -42.276  42.788  21.238  1.00 89.96    -0.271 OA
HETATM   21  C1  GAL A 604     -36.858  33.906  18.671  1.00159.95     0.303 C 
HETATM   22  C2  GAL A 604     -35.797  34.060  17.597  1.00158.93     0.244 C 
HETATM   23  C3  GAL A 604     -34.714  35.053  18.008  1.00146.87     0.220 C 
HETATM   24  C4  GAL A 604     -35.312  36.401  18.399  1.00134.70     0.215 C 
HETATM   25  C5  GAL A 604     -36.499  36.198  19.341  1.00131.58     0.180 C 
HETATM   26  C6  GAL A 604     -37.349  37.474  19.452  1.00107.43     0.178 C 
HETATM   27  O1  GAL A 604     -37.898  33.074  18.187  1.00171.21    -0.187 OA
HETATM   28  O2  GAL A 604     -35.206  32.795  17.373  1.00162.93    -0.215 OA
HETATM   29  O3  GAL A 604     -33.815  35.215  16.942  1.00139.56    -0.218 OA
HETATM   30  O4  GAL A 604     -35.739  37.105  17.253  1.00132.79    -0.218 OA
HETATM   31  O5  GAL A 604     -37.380  35.192  18.871  1.00150.70    -0.324 OA
HETATM   32  O6  GAL A 604     -37.869  37.594  20.769  1.00103.62    -0.324 OA
ENDROOT
TORSDOF 8
ENDMDL
MODEL 6
REMARK VINA RESULT:      -5.5      2.474      4.928
REMARK  0 active torsions:
REMARK  status: ('A' for Active; 'I' for Inactive)
REMARK       I    between atoms: C1_3964  and  C2_3965 
REMARK       I    between atoms: C2_3965  and  O6_3995 
REMARK       I    between atoms: C5_3968  and  N5_3975 
REMARK       I    between atoms: C6_3969  and  C7_3970 
REMARK       I    between atoms: C7_3970  and  C8_3971 
REMARK       I    between atoms: C8_3971  and  C9_3972 
REMARK       I    between atoms: C10_3973  and  N5_3975 
REMARK       I    between atoms: C5_3988  and  C6_3989 
REMARK       I    between atoms: C6_3989  and  O6_3995 
ROOT
HETATM    1  C1  SIA A 603     -35.901  37.612  22.366  1.00 97.87     0.240 C 
HETATM    2  C2  SIA A 603     -36.728  36.974  21.270  1.00108.65     0.271 C 
HETATM    3  C3  SIA A 603     -37.411  36.178  22.222  1.00101.59     0.103 C 
HETATM    4  C4  SIA A 603     -38.302  36.758  23.183  1.00 97.89     0.182 C 
HETATM    5  C5  SIA A 603     -39.434  37.518  22.585  1.00 90.71     0.166 C 
HETATM    6  C6  SIA A 603     -38.886  38.468  21.580  1.00 94.22     0.176 C 
HETATM    7  C7  SIA A 603     -39.821  39.095  20.736  1.00 95.96     0.214 C 
HETATM    8  C8  SIA A 603     -39.032  39.917  19.679  1.00 95.66     0.218 C 
HETATM    9  C9  SIA A 603     -39.923  40.929  18.947  1.00 86.65     0.218 C 
HETATM   10  C10 SIA A 603     -41.587  38.576  23.586  1.00 85.31     0.252 C 
HETATM   11  C11 SIA A 603     -42.241  39.299  24.751  1.00 84.13     0.100 C 
HETATM   12  N5  SIA A 603     -40.143  38.226  23.664  1.00 87.90    -0.235 NA
HETATM   13  O1A SIA A 603     -35.934  38.897  22.498  1.00 89.45    -0.644 OA
HETATM   14  O1B SIA A 603     -35.158  36.927  23.125  1.00 90.16    -0.644 OA
HETATM   15  O4  SIA A 603     -38.776  35.780  24.124  1.00 93.58    -0.221 OA
HETATM   16  O6  SIA A 603     -37.954  37.577  20.735  1.00 96.74    -0.325 OA
HETATM   17  O7  SIA A 603     -40.618  38.166  20.068  1.00 91.80    -0.218 OA
HETATM   18  O8  SIA A 603     -37.930  40.577  20.221  1.00 85.38    -0.218 OA
HETATM   19  O9  SIA A 603     -39.528  41.321  17.680  1.00 87.88    -0.218 OA
HETATM   20  O10 SIA A 603     -42.269  38.292  22.574  1.00 89.96    -0.271 OA
HETATM   21  C1  GAL A 604     -34.079  33.389  17.703  1.00159.95     0.303 C 
HETATM   22  C2  GAL A 604     -33.351  34.200  16.647  1.00158.93     0.244 C 
HETATM   23  C3  GAL A 604     -32.735  35.467  17.229  1.00146.87     0.220 C 
HETATM   24  C4  GAL A 604     -33.776  36.310  17.959  1.00134.70     0.215 C 
HETATM   25  C5  GAL A 604     -34.617  35.427  18.882  1.00131.58     0.180 C 
HETATM   26  C6  GAL A 604     -35.896  36.149  19.335  1.00107.43     0.178 C 
HETATM   27  O1  GAL A 604     -34.735  32.295  17.085  1.00171.21    -0.187 OA
HETATM   28  O2  GAL A 604     -32.326  33.394  16.099  1.00162.93    -0.215 OA
HETATM   29  O3  GAL A 604     -32.154  36.212  16.190  1.00139.56    -0.218 OA
HETATM   30  O4  GAL A 604     -34.622  36.961  17.036  1.00132.79    -0.218 OA
HETATM   31  O5  GAL A 604     -35.055  34.248  18.229  1.00150.70    -0.324 OA
HETATM   32  O6  GAL A 604     -36.218  35.771  20.666  1.00103.62    -0.324 OA
ENDROOT
TORSDOF 8
ENDMDL
MODEL 7
REMARK VINA RESULT:      -5.3      3.977      7.179
REMARK  0 active torsions:
REMARK  status: ('A' for Active; 'I' for Inactive)
REMARK       I    between atoms: C1_3964  and  C2_3965 
REMARK       I    between atoms: C2_3965  and  O6_3995 
REMARK       I    between atoms: C5_3968  and  N5_3975 
REMARK       I    between atoms: C6_3969  and  C7_3970 
REMARK       I    between atoms: C7_3970  and  C8_3971 
REMARK       I    between atoms: C8_3971  and  C9_3972 
REMARK       I    between atoms: C10_3973  and  N5_3975 
REMARK       I    between atoms: C5_3988  and  C6_3989 
REMARK       I    between atoms: C6_3989  and  O6_3995 
ROOT
HETATM    1  C1  SIA A 603     -35.876  36.079  19.864  1.00 97.87     0.240 C 
HETATM    2  C2  SIA A 603     -36.707  37.078  20.640  1.00108.65     0.271 C 
HETATM    3  C3  SIA A 603     -37.709  36.101  20.862  1.00101.59     0.103 C 
HETATM    4  C4  SIA A 603     -37.473  34.963  21.698  1.00 97.89     0.182 C 
HETATM    5  C5  SIA A 603     -37.091  35.301  23.098  1.00 90.71     0.166 C 
HETATM    6  C6  SIA A 603     -35.985  36.295  23.058  1.00 94.22     0.176 C 
HETATM    7  C7  SIA A 603     -35.660  36.919  24.276  1.00 95.96     0.214 C 
HETATM    8  C8  SIA A 603     -34.596  38.014  23.981  1.00 95.66     0.218 C 
HETATM    9  C9  SIA A 603     -33.895  38.500  25.256  1.00 86.65     0.218 C 
HETATM   10  C10 SIA A 603     -36.803  33.877  25.253  1.00 85.31     0.252 C 
HETATM   11  C11 SIA A 603     -36.363  32.564  25.875  1.00 84.13     0.100 C 
HETATM   12  N5  SIA A 603     -36.680  34.064  23.782  1.00 87.90    -0.235 NA
HETATM   13  O1A SIA A 603     -34.672  35.831  20.265  1.00 89.45    -0.644 OA
HETATM   14  O1B SIA A 603     -36.314  35.512  18.823  1.00 90.16    -0.644 OA
HETATM   15  O4  SIA A 603     -38.580  34.047  21.673  1.00 93.58    -0.221 OA
HETATM   16  O6  SIA A 603     -36.507  37.354  22.067  1.00 96.74    -0.325 OA
HETATM   17  O7  SIA A 603     -36.771  37.528  24.858  1.00 91.80    -0.218 OA
HETATM   18  O8  SIA A 603     -33.639  37.600  23.056  1.00 85.38    -0.218 OA
HETATM   19  O9  SIA A 603     -33.358  39.776  25.236  1.00 87.88    -0.218 OA
HETATM   20  O10 SIA A 603     -37.255  34.788  25.987  1.00 89.96    -0.271 OA
HETATM   21  C1  GAL A 604     -39.152  41.325  17.710  1.00159.95     0.303 C 
HETATM   22  C2  GAL A 604     -38.118  42.410  17.469  1.00158.93     0.244 C 
HETATM   23  C3  GAL A 604     -36.740  41.826  17.176  1.00146.87     0.220 C 
HETATM   24  C4  GAL A 604     -36.294  40.868  18.275  1.00134.70     0.215 C 
HETATM   25  C5  GAL A 604     -37.428  39.901  18.624  1.00131.58     0.180 C 
HETATM   26  C6  GAL A 604     -37.163  39.187  19.958  1.00107.43     0.178 C 
HETATM   27  O1  GAL A 604     -40.376  41.922  18.100  1.00171.21    -0.187 OA
HETATM   28  O2  GAL A 604     -38.540  43.184  16.362  1.00162.93    -0.215 OA
HETATM   29  O3  GAL A 604     -35.817  42.876  17.048  1.00139.56    -0.218 OA
HETATM   30  O4  GAL A 604     -35.916  41.581  19.432  1.00132.79    -0.218 OA
HETATM   31  O5  GAL A 604     -38.663  40.576  18.790  1.00150.70    -0.324 OA
HETATM   32  O6  GAL A 604     -37.667  37.860  19.903  1.00103.62    -0.324 OA
ENDROOT
TORSDOF 8
ENDMDL
MODEL 8
REMARK VINA RESULT:      -5.2      2.011      4.463
REMARK  0 active torsions:
REMARK  status: ('A' for Active; 'I' for Inactive)
REMARK       I    between atoms: C1_3964  and  C2_3965 
REMARK       I    between atoms: C2_3965  and  O6_3995 
REMARK       I    between atoms: C5_3968  and  N5_3975 
REMARK       I    between atoms: C6_3969  and  C7_3970 
REMARK       I    between atoms: C7_3970  and  C8_3971 
REMARK       I    between atoms: C8_3971  and  C9_3972 
REMARK       I    between atoms: C10_3973  and  N5_3975 
REMARK       I    between atoms: C5_3988  and  C6_3989 
REMARK       I    between atoms: C6_3989  and  O6_3995 
ROOT
HETATM    1  C1  SIA A 603     -36.569  39.931  22.585  1.00 97.87     0.240 C 
HETATM    2  C2  SIA A 603     -37.806  39.136  22.228  1.00108.65     0.271 C 
HETATM    3  C3  SIA A 603     -38.128  38.984  23.600  1.00101.59     0.103 C 
HETATM    4  C4  SIA A 603     -38.524  40.101  24.404  1.00 97.89     0.182 C 
HETATM    5  C5  SIA A 603     -39.734  40.814  23.906  1.00 90.71     0.166 C 
HETATM    6  C6  SIA A 603     -39.544  41.113  22.462  1.00 94.22     0.176 C 
HETATM    7  C7  SIA A 603     -40.679  41.560  21.760  1.00 95.96     0.214 C 
HETATM    8  C8  SIA A 603     -40.299  41.666  20.256  1.00 95.66     0.218 C 
HETATM    9  C9  SIA A 603     -41.318  42.487  19.456  1.00 86.65     0.218 C 
HETATM   10  C10 SIA A 603     -41.233  42.683  24.914  1.00 85.31     0.252 C 
HETATM   11  C11 SIA A 603     -41.321  43.949  25.747  1.00 84.13     0.100 C 
HETATM   12  N5  SIA A 603     -39.907  42.046  24.693  1.00 87.90    -0.235 NA
HETATM   13  O1A SIA A 603     -36.443  41.126  22.108  1.00 89.45    -0.644 OA
HETATM   14  O1B SIA A 603     -35.649  39.447  23.302  1.00 90.16    -0.644 OA
HETATM   15  O4  SIA A 603     -38.674  39.734  25.785  1.00 93.58    -0.221 OA
HETATM   16  O6  SIA A 603     -39.091  39.757  21.885  1.00 96.74    -0.325 OA
HETATM   17  O7  SIA A 603     -41.746  40.671  21.884  1.00 91.80    -0.218 OA
HETATM   18  O8  SIA A 603     -39.023  42.192  20.059  1.00 85.38    -0.218 OA
HETATM   19  O9  SIA A 603     -41.417  42.227  18.101  1.00 87.88    -0.218 OA
HETATM   20  O10 SIA A 603     -42.276  42.196  24.417  1.00 89.96    -0.271 OA
HETATM   21  C1  GAL A 604     -37.057  33.886  20.111  1.00159.95     0.303 C 
HETATM   22  C2  GAL A 604     -36.733  33.998  18.633  1.00158.93     0.244 C 
HETATM   23  C3  GAL A 604     -35.837  35.196  18.336  1.00146.87     0.220 C 
HETATM   24  C4  GAL A 604     -36.440  36.490  18.873  1.00134.70     0.215 C 
HETATM   25  C5  GAL A 604     -36.924  36.290  20.310  1.00131.58     0.180 C 
HETATM   26  C6  GAL A 604     -37.863  37.426  20.747  1.00107.43     0.178 C 
HETATM   27  O1  GAL A 604     -37.988  32.838  20.310  1.00171.21    -0.187 OA
HETATM   28  O2  GAL A 604     -36.071  32.813  18.234  1.00162.93    -0.215 OA
HETATM   29  O3  GAL A 604     -35.647  35.292  16.948  1.00139.56    -0.218 OA
HETATM   30  O4  GAL A 604     -37.522  36.905  18.068  1.00132.79    -0.218 OA
HETATM   31  O5  GAL A 604     -37.677  35.097  20.451  1.00150.70    -0.324 OA
HETATM   32  O6  GAL A 604     -37.672  37.706  22.127  1.00103.62    -0.324 OA
ENDROOT
TORSDOF 8
ENDMDL
MODEL 9
REMARK VINA RESULT:      -5.1      1.390      1.516
REMARK  0 active torsions:
REMARK  status: ('A' for Active; 'I' for Inactive)
REMARK       I    between atoms: C1_3964  and  C2_3965 
REMARK       I    between atoms: C2_3965  and  O6_3995 
REMARK       I    between atoms: C5_3968  and  N5_3975 
REMARK       I    between atoms: C6_3969  and  C7_3970 
REMARK       I    between atoms: C7_3970  and  C8_3971 
REMARK       I    between atoms: C8_3971  and  C9_3972 
REMARK       I    between atoms: C10_3973  and  N5_3975 
REMARK       I    between atoms: C5_3988  and  C6_3989 
REMARK       I    between atoms: C6_3989  and  O6_3995 
ROOT
HETATM    1  C1  SIA A 603     -40.574  38.165  20.371  1.00 97.87     0.240 C 
HETATM    2  C2  SIA A 603     -39.113  38.415  20.681  1.00108.65     0.271 C 
HETATM    3  C3  SIA A 603     -39.244  39.773  20.298  1.00101.59     0.103 C 
HETATM    4  C4  SIA A 603     -40.033  40.694  21.060  1.00 97.89     0.182 C 
HETATM    5  C5  SIA A 603     -39.601  40.840  22.478  1.00 90.71     0.166 C 
HETATM    6  C6  SIA A 603     -39.466  39.484  23.072  1.00 94.22     0.176 C 
HETATM    7  C7  SIA A 603     -38.830  39.409  24.325  1.00 95.96     0.214 C 
HETATM    8  C8  SIA A 603     -38.663  37.906  24.686  1.00 95.66     0.218 C 
HETATM    9  C9  SIA A 603     -38.331  37.699  26.169  1.00 86.65     0.218 C 
HETATM   10  C10 SIA A 603     -40.279  42.477  24.380  1.00 85.31     0.252 C 
HETATM   11  C11 SIA A 603     -41.378  43.282  25.050  1.00 84.13     0.100 C 
HETATM   12  N5  SIA A 603     -40.607  41.644  23.192  1.00 87.90    -0.235 NA
HETATM   13  O1A SIA A 603     -41.337  37.713  21.311  1.00 89.45    -0.644 OA
HETATM   14  O1B SIA A 603     -41.052  38.354  19.217  1.00 90.16    -0.644 OA
HETATM   15  O4  SIA A 603     -40.125  41.975  20.414  1.00 93.58    -0.221 OA
HETATM   16  O6  SIA A 603     -38.620  38.731  22.026  1.00 96.74    -0.325 OA
HETATM   17  O7  SIA A 603     -37.568  40.001  24.300  1.00 91.80    -0.218 OA
HETATM   18  O8  SIA A 603     -39.780  37.143  24.351  1.00 85.38    -0.218 OA
HETATM   19  O9  SIA A 603     -37.649  36.544  26.510  1.00 87.88    -0.218 OA
HETATM   20  O10 SIA A 603     -39.113  42.519  24.841  1.00 89.96    -0.271 OA
HETATM   21  C1  GAL A 604     -35.233  36.076  17.206  1.00159.95     0.303 C 
HETATM   22  C2  GAL A 604     -35.042  34.622  17.597  1.00158.93     0.244 C 
HETATM   23  C3  GAL A 604     -36.356  33.966  18.007  1.00146.87     0.220 C 
HETATM   24  C4  GAL A 604     -37.051  34.753  19.114  1.00134.70     0.215 C 
HETATM   25  C5  GAL A 604     -37.065  36.244  18.772  1.00131.58     0.180 C 
HETATM   26  C6  GAL A 604     -37.404  37.097  20.005  1.00107.43     0.178 C 
HETATM   27  O1  GAL A 604     -33.969  36.666  16.958  1.00171.21    -0.187 OA
HETATM   28  O2  GAL A 604     -34.505  33.932  16.484  1.00162.93    -0.215 OA
HETATM   29  O3  GAL A 604     -36.098  32.655  18.437  1.00139.56    -0.218 OA
HETATM   30  O4  GAL A 604     -36.393  34.561  20.347  1.00132.79    -0.218 OA
HETATM   31  O5  GAL A 604     -35.795  36.696  18.332  1.00150.70    -0.324 OA
HETATM   32  O6  GAL A 604     -38.165  38.230  19.613  1.00103.62    -0.324 OA
ENDROOT
TORSDOF 8
ENDMDL
