MODEL 1
REMARK VINA RESULT:      -5.4      0.000      0.000
REMARK  0 active torsions:
REMARK  status: ('A' for Active; 'I' for Inactive)
REMARK       I    between atoms: C1_1  and  C2_4 
REMARK       I    between atoms: C2_4  and  O3_21 
REMARK       I    between atoms: C5_8  and  N5_11 
REMARK       I    between atoms: C10_12  and  N5_11 
REMARK       I    between atoms: C6_9  and  C7_15 
REMARK       I    between atoms: C7_15  and  C8_17 
REMARK       I    between atoms: C8_17  and  C9_19 
REMARK       I    between atoms: C1_24  and  O3_30 
REMARK       I    between atoms: C3_22  and  O3_21 
REMARK       I    between atoms: C5_27  and  C6_45 
REMARK       I    between atoms: C2_32  and  N2_39 
REMARK       I    between atoms: C7_40  and  N2_39 
REMARK       I    between atoms: C3_31  and  O3_30 
REMARK       I    between atoms: C5_36  and  C6_43 
ROOT
HETATM    1  C1  SIA C1001     -37.033  33.793  22.465  1.00 29.87     0.240 C 
HETATM    2  O1A SIA C1001     -37.423  33.022  21.590  1.00 27.54    -0.644 OA
HETATM    3  O1B SIA C1001     -36.995  33.408  23.667  1.00 32.56    -0.644 OA
HETATM    4  C2  SIA C1001     -36.595  35.200  22.094  1.00 28.70     0.271 C 
HETATM    5  C3  SIA C1001     -35.108  35.420  22.518  1.00 26.68     0.103 C 
HETATM    6  C4  SIA C1001     -34.186  34.488  21.764  1.00 27.13     0.182 C 
HETATM    7  O4  SIA C1001     -32.815  34.638  22.130  1.00 27.74    -0.221 OA
HETATM    8  C5  SIA C1001     -34.361  34.739  20.268  1.00 27.71     0.166 C 
HETATM    9  N5  SIA C1001     -33.577  33.704  19.645  1.00 25.75    -0.235 NA
HETATM   10  C6  SIA C1001     -35.852  34.593  19.865  1.00 27.96     0.176 C 
HETATM   11  O6  SIA C1001     -36.702  35.411  20.676  1.00 26.35    -0.325 OA
HETATM   12  C7  SIA C1001     -36.175  34.832  18.398  1.00 26.98     0.214 C 
HETATM   13  O7  SIA C1001     -35.479  35.984  17.956  1.00 25.74    -0.218 OA
HETATM   14  C8  SIA C1001     -37.688  34.927  18.184  1.00 27.81     0.218 C 
HETATM   15  O8  SIA C1001     -38.361  33.822  18.774  1.00 27.64    -0.218 OA
HETATM   16  C9  SIA C1001     -38.095  34.861  16.719  1.00 28.76     0.218 C 
HETATM   17  O9  SIA C1001     -39.520  35.009  16.596  1.00 25.96    -0.218 OA
HETATM   18  C10 SIA C1001     -32.952  33.906  18.505  1.00 26.15     0.252 C 
HETATM   19  O10 SIA C1001     -33.007  34.954  17.871  1.00 27.52    -0.271 OA
HETATM   20  C11 SIA C1001     -32.182  32.723  18.023  1.00 25.91     0.100 C 
HETATM   21  C1  GAL C1002     -38.128  39.557  23.778  1.00 42.56     0.270 C 
HETATM   22  C2  GAL C1002     -37.756  38.051  23.887  1.00 38.39     0.238 C 
HETATM   23  O2  GAL C1002     -36.597  37.808  24.634  1.00 35.49    -0.215 OA
HETATM   24  C3  GAL C1002     -37.471  37.397  22.538  1.00 32.50     0.186 C 
HETATM   25  O3  GAL C1002     -37.600  36.004  22.742  1.00 29.89    -0.324 OA
HETATM   26  C4  GAL C1002     -38.425  37.867  21.433  1.00 32.62     0.211 C 
HETATM   27  O4  GAL C1002     -39.716  37.347  21.645  1.00 31.61    -0.218 OA
HETATM   28  C5  GAL C1002     -38.594  39.367  21.405  1.00 32.94     0.184 C 
HETATM   29  O5  GAL C1002     -39.025  39.727  22.694  1.00 37.12    -0.326 OA
HETATM   30  C6  GAL C1002     -39.711  39.689  20.370  1.00 32.14     0.214 C 
HETATM   31  O6  GAL C1002     -40.026  41.057  20.401  1.00 30.07    -0.218 OA
HETATM   32  C1  NAG C1003     -38.196  43.781  26.044  1.00 69.25     0.294 C 
HETATM   33  O1  NAG C1003     -37.474  44.124  27.184  1.00 64.12    -0.188 OA
HETATM   34  C2  NAG C1003     -37.856  42.319  25.734  1.00 65.91     0.195 C 
HETATM   35  N2  NAG C1003     -36.724  42.312  24.836  1.00 74.96    -0.232 NA
HETATM   36  C3  NAG C1003     -38.896  41.550  24.925  1.00 60.49     0.178 C 
HETATM   37  O3  NAG C1003     -38.696  40.122  25.007  1.00 50.89    -0.327 OA
HETATM   38  C4  NAG C1003     -40.324  42.045  25.174  1.00 61.41     0.211 C 
HETATM   39  O4  NAG C1003     -41.107  41.484  24.132  1.00 69.67    -0.218 OA
HETATM   40  C5  NAG C1003     -40.372  43.597  25.209  1.00 68.17     0.184 C 
HETATM   41  O5  NAG C1003     -39.576  44.040  26.292  1.00 70.44    -0.325 OA
HETATM   42  C6  NAG C1003     -41.759  44.230  25.327  1.00 66.34     0.214 C 
HETATM   43  O6  NAG C1003     -42.278  43.780  26.551  1.00 64.10    -0.218 OA
HETATM   44  C7  NAG C1003     -35.537  41.799  25.137  1.00 80.23     0.252 C 
HETATM   45  O7  NAG C1003     -35.322  41.314  26.250  1.00 82.55    -0.271 OA
HETATM   46  C8  NAG C1003     -34.468  41.858  24.059  1.00 75.65     0.100 C 
ENDROOT
TORSDOF 12
ENDMDL
MODEL 2
REMARK VINA RESULT:      -5.1      2.522      9.781
REMARK  0 active torsions:
REMARK  status: ('A' for Active; 'I' for Inactive)
REMARK       I    between atoms: C1_1  and  C2_4 
REMARK       I    between atoms: C2_4  and  O3_21 
REMARK       I    between atoms: C5_8  and  N5_11 
REMARK       I    between atoms: C10_12  and  N5_11 
REMARK       I    between atoms: C6_9  and  C7_15 
REMARK       I    between atoms: C7_15  and  C8_17 
REMARK       I    between atoms: C8_17  and  C9_19 
REMARK       I    between atoms: C1_24  and  O3_30 
REMARK       I    between atoms: C3_22  and  O3_21 
REMARK       I    between atoms: C5_27  and  C6_45 
REMARK       I    between atoms: C2_32  and  N2_39 
REMARK       I    between atoms: C7_40  and  N2_39 
REMARK       I    between atoms: C3_31  and  O3_30 
REMARK       I    between atoms: C5_36  and  C6_43 
ROOT
HETATM    1  C1  SIA C1001     -36.518  43.012  20.997  1.00 29.87     0.240 C 
HETATM    2  O1A SIA C1001     -37.342  43.814  20.561  1.00 27.54    -0.644 OA
HETATM    3  O1B SIA C1001     -35.308  43.353  21.104  1.00 32.56    -0.644 OA
HETATM    4  C2  SIA C1001     -36.964  41.619  21.409  1.00 28.70     0.271 C 
HETATM    5  C3  SIA C1001     -36.631  41.382  22.917  1.00 26.68     0.103 C 
HETATM    6  C4  SIA C1001     -37.402  42.339  23.798  1.00 27.13     0.182 C 
HETATM    7  O4  SIA C1001     -37.119  42.175  25.187  1.00 27.74    -0.221 OA
HETATM    8  C5  SIA C1001     -38.894  42.142  23.539  1.00 27.71     0.166 C 
HETATM    9  N5  SIA C1001     -39.524  43.198  24.290  1.00 25.75    -0.235 NA
HETATM   10  C6  SIA C1001     -39.208  42.304  22.028  1.00 27.96     0.176 C 
HETATM   11  O6  SIA C1001     -38.380  41.459  21.222  1.00 26.35    -0.325 OA
HETATM   12  C7  SIA C1001     -40.662  42.119  21.623  1.00 26.98     0.214 C 
HETATM   13  O7  SIA C1001     -41.182  40.982  22.289  1.00 25.74    -0.218 OA
HETATM   14  C8  SIA C1001     -40.793  42.033  20.099  1.00 27.81     0.218 C 
HETATM   15  O8  SIA C1001     -40.127  43.117  19.464  1.00 27.64    -0.218 OA
HETATM   16  C9  SIA C1001     -42.230  42.151  19.611  1.00 28.76     0.218 C 
HETATM   17  O9  SIA C1001     -42.278  42.010  18.181  1.00 25.96    -0.218 OA
HETATM   18  C10 SIA C1001     -40.703  43.036  24.850  1.00 26.15     0.252 C 
HETATM   19  O10 SIA C1001     -41.370  42.011  24.756  1.00 27.52    -0.271 OA
HETATM   20  C11 SIA C1001     -41.185  44.235  25.595  1.00 25.91     0.100 C 
HETATM   21  C1  GAL C1002     -35.352  37.206  19.959  1.00 42.56     0.270 C 
HETATM   22  C2  GAL C1002     -35.211  38.707  20.341  1.00 38.39     0.238 C 
HETATM   23  O2  GAL C1002     -34.522  38.921  21.541  1.00 35.49    -0.215 OA
HETATM   24  C3  GAL C1002     -36.549  39.408  20.552  1.00 32.50     0.186 C 
HETATM   25  O3  GAL C1002     -36.289  40.793  20.439  1.00 29.89    -0.324 OA
HETATM   26  C4  GAL C1002     -37.615  38.979  19.536  1.00 32.62     0.211 C 
HETATM   27  O4  GAL C1002     -37.313  39.493  18.261  1.00 31.61    -0.218 OA
HETATM   28  C5  GAL C1002     -37.687  37.482  19.361  1.00 32.94     0.184 C 
HETATM   29  O5  GAL C1002     -36.390  37.076  19.002  1.00 37.12    -0.326 OA
HETATM   30  C6  GAL C1002     -38.668  37.198  18.187  1.00 32.14     0.214 C 
HETATM   31  O6  GAL C1002     -38.669  35.830  17.870  1.00 30.07    -0.218 OA
HETATM   32  C1  NAG C1003     -33.238  32.904  20.005  1.00 69.25     0.294 C 
HETATM   33  O1  NAG C1003     -32.154  32.519  20.789  1.00 64.12    -0.188 OA
HETATM   34  C2  NAG C1003     -33.515  34.376  20.331  1.00 65.91     0.195 C 
HETATM   35  N2  NAG C1003     -34.474  34.413  21.412  1.00 74.96    -0.232 NA
HETATM   36  C3  NAG C1003     -34.236  35.174  19.250  1.00 60.49     0.178 C 
HETATM   37  O3  NAG C1003     -34.114  36.597  19.459  1.00 50.89    -0.327 OA
HETATM   38  C4  NAG C1003     -33.925  34.672  17.837  1.00 61.41     0.211 C 
HETATM   39  O4  NAG C1003     -34.900  35.271  16.999  1.00 69.67    -0.218 OA
HETATM   40  C5  NAG C1003     -33.942  33.120  17.787  1.00 68.17     0.184 C 
HETATM   41  O5  NAG C1003     -32.922  32.638  18.641  1.00 70.44    -0.325 OA
HETATM   42  C6  NAG C1003     -33.770  32.485  16.406  1.00 66.34     0.214 C 
HETATM   43  O6  NAG C1003     -32.503  32.891  15.958  1.00 64.10    -0.218 OA
HETATM   44  C7  NAG C1003     -34.222  34.914  22.615  1.00 80.23     0.252 C 
HETATM   45  O7  NAG C1003     -33.106  35.359  22.894  1.00 82.55    -0.271 OA
HETATM   46  C8  NAG C1003     -35.359  34.892  23.622  1.00 75.65     0.100 C 
ENDROOT
TORSDOF 12
ENDMDL
MODEL 3
REMARK VINA RESULT:      -4.2      4.344      7.637
REMARK  0 active torsions:
REMARK  status: ('A' for Active; 'I' for Inactive)
REMARK       I    between atoms: C1_1  and  C2_4 
REMARK       I    between atoms: C2_4  and  O3_21 
REMARK       I    between atoms: C5_8  and  N5_11 
REMARK       I    between atoms: C10_12  and  N5_11 
REMARK       I    between atoms: C6_9  and  C7_15 
REMARK       I    between atoms: C7_15  and  C8_17 
REMARK       I    between atoms: C8_17  and  C9_19 
REMARK       I    between atoms: C1_24  and  O3_30 
REMARK       I    between atoms: C3_22  and  O3_21 
REMARK       I    between atoms: C5_27  and  C6_45 
REMARK       I    between atoms: C2_32  and  N2_39 
REMARK       I    between atoms: C7_40  and  N2_39 
REMARK       I    between atoms: C3_31  and  O3_30 
REMARK       I    between atoms: C5_36  and  C6_43 
ROOT
HETATM    1  C1  SIA C1001     -35.631  33.515  21.726  1.00 29.87     0.240 C 
HETATM    2  O1A SIA C1001     -35.014  32.817  22.527  1.00 27.54    -0.644 OA
HETATM    3  O1B SIA C1001     -35.872  33.076  20.567  1.00 32.56    -0.644 OA
HETATM    4  C2  SIA C1001     -36.105  34.900  22.137  1.00 28.70     0.271 C 
HETATM    5  C3  SIA C1001     -37.660  34.985  22.010  1.00 26.68     0.103 C 
HETATM    6  C4  SIA C1001     -38.334  34.019  22.959  1.00 27.13     0.182 C 
HETATM    7  O4  SIA C1001     -39.758  34.046  22.869  1.00 27.74    -0.221 OA
HETATM    8  C5  SIA C1001     -37.891  34.349  24.383  1.00 27.71     0.166 C 
HETATM    9  N5  SIA C1001     -38.447  33.285  25.179  1.00 25.75    -0.235 NA
HETATM   10  C6  SIA C1001     -36.343  34.337  24.485  1.00 27.96     0.176 C 
HETATM   11  O6  SIA C1001     -35.741  35.181  23.499  1.00 26.35    -0.325 OA
HETATM   12  C7  SIA C1001     -35.760  34.665  25.852  1.00 26.98     0.214 C 
HETATM   13  O7  SIA C1001     -36.450  35.779  26.389  1.00 25.74    -0.218 OA
HETATM   14  C8  SIA C1001     -34.248  34.886  25.756  1.00 27.81     0.218 C 
HETATM   15  O8  SIA C1001     -33.612  33.812  25.076  1.00 27.64    -0.218 OA
HETATM   16  C9  SIA C1001     -33.557  34.918  27.112  1.00 28.76     0.218 C 
HETATM   17  O9  SIA C1001     -32.154  35.180  26.945  1.00 25.96    -0.218 OA
HETATM   18  C10 SIA C1001     -38.851  33.489  26.414  1.00 26.15     0.252 C 
HETATM   19  O10 SIA C1001     -38.762  34.565  26.995  1.00 27.52    -0.271 OA
HETATM   20  C11 SIA C1001     -39.408  32.272  27.073  1.00 25.91     0.100 C 
HETATM   21  C1  GAL C1002     -35.307  39.283  20.058  1.00 42.56     0.270 C 
HETATM   22  C2  GAL C1002     -35.564  37.750  20.068  1.00 38.39     0.238 C 
HETATM   23  O2  GAL C1002     -36.822  37.384  19.574  1.00 35.49    -0.215 OA
HETATM   24  C3  GAL C1002     -35.523  37.136  21.465  1.00 32.50     0.186 C 
HETATM   25  O3  GAL C1002     -35.319  35.749  21.278  1.00 29.89    -0.324 OA
HETATM   26  C4  GAL C1002     -34.414  37.727  22.344  1.00 32.62     0.211 C 
HETATM   27  O4  GAL C1002     -33.150  37.300  21.894  1.00 31.61    -0.218 OA
HETATM   28  C5  GAL C1002     -34.370  39.235  22.295  1.00 32.94     0.184 C 
HETATM   29  O5  GAL C1002     -34.232  39.570  20.937  1.00 37.12    -0.326 OA
HETATM   30  C6  GAL C1002     -33.104  39.689  23.077  1.00 32.14     0.214 C 
HETATM   31  O6  GAL C1002     -32.918  41.074  22.946  1.00 30.07    -0.218 OA
HETATM   32  C1  NAG C1003     -36.043  43.394  17.705  1.00 69.25     0.294 C 
HETATM   33  O1  NAG C1003     -37.000  43.629  16.723  1.00 64.12    -0.188 OA
HETATM   34  C2  NAG C1003     -36.190  41.926  18.118  1.00 65.91     0.195 C 
HETATM   35  N2  NAG C1003     -37.120  41.872  19.223  1.00 74.96    -0.232 NA
HETATM   36  C3  NAG C1003     -34.950  41.277  18.725  1.00 60.49     0.178 C 
HETATM   37  O3  NAG C1003     -35.041  39.835  18.725  1.00 50.89    -0.327 OA
HETATM   38  C4  NAG C1003     -33.646  41.869  18.183  1.00 61.41     0.211 C 
HETATM   39  O4  NAG C1003     -32.629  41.417  19.063  1.00 69.67    -0.218 OA
HETATM   40  C5  NAG C1003     -33.738  43.416  18.095  1.00 68.17     0.184 C 
HETATM   41  O5  NAG C1003     -34.765  43.748  17.180  1.00 70.44    -0.325 OA
HETATM   42  C6  NAG C1003     -32.459  44.149  17.686  1.00 66.34     0.214 C 
HETATM   43  O6  NAG C1003     -32.154  43.687  16.396  1.00 64.10    -0.218 OA
HETATM   44  C7  NAG C1003     -38.295  41.255  19.179  1.00 80.23     0.252 C 
HETATM   45  O7  NAG C1003     -38.682  40.705  18.146  1.00 82.55    -0.271 OA
HETATM   46  C8  NAG C1003     -39.132  41.279  20.446  1.00 75.65     0.100 C 
ENDROOT
TORSDOF 12
ENDMDL
MODEL 4
REMARK VINA RESULT:      -2.5      4.017      7.369
REMARK  0 active torsions:
REMARK  status: ('A' for Active; 'I' for Inactive)
REMARK       I    between atoms: C1_1  and  C2_4 
REMARK       I    between atoms: C2_4  and  O3_21 
REMARK       I    between atoms: C5_8  and  N5_11 
REMARK       I    between atoms: C10_12  and  N5_11 
REMARK       I    between atoms: C6_9  and  C7_15 
REMARK       I    between atoms: C7_15  and  C8_17 
REMARK       I    between atoms: C8_17  and  C9_19 
REMARK       I    between atoms: C1_24  and  O3_30 
REMARK       I    between atoms: C3_22  and  O3_21 
REMARK       I    between atoms: C5_27  and  C6_45 
REMARK       I    between atoms: C2_32  and  N2_39 
REMARK       I    between atoms: C7_40  and  N2_39 
REMARK       I    between atoms: C3_31  and  O3_30 
REMARK       I    between atoms: C5_36  and  C6_43 
ROOT
HETATM    1  C1  SIA C1001     -36.274  38.742  17.499  1.00 29.87     0.240 C 
HETATM    2  O1A SIA C1001     -36.793  39.668  16.879  1.00 27.54    -0.644 OA
HETATM    3  O1B SIA C1001     -36.054  37.643  16.918  1.00 32.56    -0.644 OA
HETATM    4  C2  SIA C1001     -35.895  38.929  18.959  1.00 28.70     0.271 C 
HETATM    5  C3  SIA C1001     -34.360  38.700  19.140  1.00 26.68     0.103 C 
HETATM    6  C4  SIA C1001     -33.564  39.732  18.372  1.00 27.13     0.182 C 
HETATM    7  O4  SIA C1001     -32.154  39.555  18.491  1.00 27.74    -0.221 OA
HETATM    8  C5  SIA C1001     -33.964  41.120  18.868  1.00 27.71     0.166 C 
HETATM    9  N5  SIA C1001     -33.285  42.021  17.973  1.00 25.75    -0.235 NA
HETATM   10  C6  SIA C1001     -35.499  41.315  18.756  1.00 27.96     0.176 C 
HETATM   11  O6  SIA C1001     -36.215  40.258  19.404  1.00 26.35    -0.325 OA
HETATM   12  C7  SIA C1001     -36.040  42.654  19.232  1.00 26.98     0.214 C 
HETATM   13  O7  SIA C1001     -35.417  42.991  20.458  1.00 25.74    -0.218 OA
HETATM   14  C8  SIA C1001     -37.568  42.620  19.325  1.00 27.81     0.218 C 
HETATM   15  O8  SIA C1001     -38.146  42.133  18.120  1.00 27.64    -0.218 OA
HETATM   16  C9  SIA C1001     -38.192  43.997  19.498  1.00 28.76     0.218 C 
HETATM   17  O9  SIA C1001     -39.619  43.879  19.630  1.00 25.96    -0.218 OA
HETATM   18  C10 SIA C1001     -32.839  43.190  18.380  1.00 26.15     0.252 C 
HETATM   19  O10 SIA C1001     -32.988  43.620  19.518  1.00 27.52    -0.271 OA
HETATM   20  C11 SIA C1001     -32.154  43.977  17.314  1.00 25.91     0.100 C 
HETATM   21  C1  GAL C1002     -37.148  36.315  22.930  1.00 42.56     0.270 C 
HETATM   22  C2  GAL C1002     -36.766  36.522  21.437  1.00 38.39     0.238 C 
HETATM   23  O2  GAL C1002     -35.508  36.009  21.099  1.00 35.49    -0.215 OA
HETATM   24  C3  GAL C1002     -36.690  37.990  21.027  1.00 32.50     0.186 C 
HETATM   25  O3  GAL C1002     -36.789  38.010  19.617  1.00 29.89    -0.324 OA
HETATM   26  C4  GAL C1002     -37.799  38.843  21.654  1.00 32.62     0.211 C 
HETATM   27  O4  GAL C1002     -39.044  38.533  21.075  1.00 31.61    -0.218 OA
HETATM   28  C5  GAL C1002     -37.968  38.589  23.133  1.00 32.94     0.184 C 
HETATM   29  O5  GAL C1002     -38.198  37.208  23.259  1.00 37.12    -0.326 OA
HETATM   30  C6  GAL C1002     -39.228  39.374  23.598  1.00 32.14     0.214 C 
HETATM   31  O6  GAL C1002     -39.532  39.064  24.933  1.00 30.07    -0.218 OA
HETATM   32  C1  NAG C1003     -36.864  33.376  26.707  1.00 69.25     0.294 C 
HETATM   33  O1  NAG C1003     -35.977  32.316  26.870  1.00 64.12    -0.188 OA
HETATM   34  C2  NAG C1003     -36.578  33.979  25.327  1.00 65.91     0.195 C 
HETATM   35  N2  NAG C1003     -35.595  35.024  25.500  1.00 74.96    -0.232 NA
HETATM   36  C3  NAG C1003     -37.730  34.743  24.681  1.00 60.49     0.178 C 
HETATM   37  O3  NAG C1003     -37.522  34.936  23.266  1.00 50.89    -0.327 OA
HETATM   38  C4  NAG C1003     -39.103  34.202  25.093  1.00 61.41     0.211 C 
HETATM   39  O4  NAG C1003     -40.035  35.195  24.697  1.00 69.67    -0.218 OA
HETATM   40  C5  NAG C1003     -39.142  33.895  26.614  1.00 68.17     0.184 C 
HETATM   41  O5  NAG C1003     -38.190  32.884  26.886  1.00 70.44    -0.325 OA
HETATM   42  C6  NAG C1003     -40.494  33.465  27.184  1.00 66.34     0.214 C 
HETATM   43  O6  NAG C1003     -40.823  32.272  26.522  1.00 64.10    -0.218 OA
HETATM   44  C7  NAG C1003     -34.377  34.996  24.972  1.00 80.23     0.252 C 
HETATM   45  O7  NAG C1003     -33.996  34.027  24.311  1.00 82.55    -0.271 OA
HETATM   46  C8  NAG C1003     -33.483  36.195  25.239  1.00 75.65     0.100 C 
ENDROOT
TORSDOF 12
ENDMDL
