MODEL 1
REMARK VINA RESULT:      -7.2      0.000      0.000
REMARK  0 active torsions:
REMARK  status: ('A' for Active; 'I' for Inactive)
REMARK       I    between atoms: C1_3964  and  C2_3965 
REMARK       I    between atoms: C2_3965  and  O6_3995 
REMARK       I    between atoms: C5_3968  and  N5_3975 
REMARK       I    between atoms: C6_3969  and  C7_3970 
REMARK       I    between atoms: C7_3970  and  C8_3971 
REMARK       I    between atoms: C8_3971  and  C9_3972 
REMARK       I    between atoms: C10_3973  and  N5_3975 
REMARK       I    between atoms: C5_3988  and  C6_3989 
REMARK       I    between atoms: C6_3989  and  O6_3995 
ROOT
HETATM    1  C1  SIA A 603     -38.635  37.140  20.569  1.00 97.87     0.240 C 
HETATM    2  C2  SIA A 603     -38.007  37.493  19.238  1.00108.65     0.271 C 
HETATM    3  C3  SIA A 603     -39.275  37.458  18.607  1.00101.59     0.103 C 
HETATM    4  C4  SIA A 603     -40.286  38.428  18.903  1.00 97.89     0.182 C 
HETATM    5  C5  SIA A 603     -39.877  39.836  18.638  1.00 90.71     0.166 C 
HETATM    6  C6  SIA A 603     -38.562  40.076  19.290  1.00 94.22     0.176 C 
HETATM    7  C7  SIA A 603     -37.900  41.268  18.944  1.00 95.96     0.214 C 
HETATM    8  C8  SIA A 603     -36.497  41.246  19.614  1.00 95.66     0.218 C 
HETATM    9  C9  SIA A 603     -35.836  42.630  19.623  1.00 86.65     0.218 C 
HETATM   10  C10 SIA A 603     -41.177  42.087  18.616  1.00 85.31     0.252 C 
HETATM   11  C11 SIA A 603     -42.275  42.942  19.223  1.00 84.13     0.100 C 
HETATM   12  N5  SIA A 603     -40.916  40.733  19.173  1.00 87.90    -0.235 NA
HETATM   13  O1A SIA A 603     -38.463  37.944  21.567  1.00 89.45    -0.644 OA
HETATM   14  O1B SIA A 603     -39.287  36.071  20.735  1.00 90.16    -0.644 OA
HETATM   15  O4  SIA A 603     -41.527  38.119  18.247  1.00 93.58    -0.221 OA
HETATM   16  O6  SIA A 603     -37.721  38.872  18.824  1.00 96.74    -0.325 OA
HETATM   17  O7  SIA A 603     -37.729  41.382  17.565  1.00 91.80    -0.218 OA
HETATM   18  O8  SIA A 603     -36.528  40.739  20.912  1.00 85.38    -0.218 OA
HETATM   19  O9  SIA A 603     -34.453  42.671  19.675  1.00 87.88    -0.218 OA
HETATM   20  O10 SIA A 603     -40.500  42.537  17.661  1.00 89.96    -0.271 OA
HETATM   21  C1  GAL A 604     -34.781  33.526  16.698  1.00159.95     0.303 C 
HETATM   22  C2  GAL A 604     -33.400  33.544  17.326  1.00158.93     0.244 C 
HETATM   23  C3  GAL A 604     -33.463  33.787  18.831  1.00146.87     0.220 C 
HETATM   24  C4  GAL A 604     -34.240  35.058  19.158  1.00134.70     0.215 C 
HETATM   25  C5  GAL A 604     -35.548  35.095  18.366  1.00131.58     0.180 C 
HETATM   26  C6  GAL A 604     -36.166  36.503  18.372  1.00107.43     0.178 C 
HETATM   27  O1  GAL A 604     -34.655  33.423  15.291  1.00171.21    -0.187 OA
HETATM   28  O2  GAL A 604     -32.786  32.292  17.084  1.00162.93    -0.215 OA
HETATM   29  O3  GAL A 604     -32.155  33.879  19.334  1.00139.56    -0.218 OA
HETATM   30  O4  GAL A 604     -33.474  36.202  18.850  1.00132.79    -0.218 OA
HETATM   31  O5  GAL A 604     -35.347  34.773  17.000  1.00150.70    -0.324 OA
HETATM   32  O6  GAL A 604     -37.583  36.407  18.392  1.00103.62    -0.324 OA
ENDROOT
TORSDOF 8
ENDMDL
MODEL 2
REMARK VINA RESULT:      -6.1      2.704      8.528
REMARK  0 active torsions:
REMARK  status: ('A' for Active; 'I' for Inactive)
REMARK       I    between atoms: C1_3964  and  C2_3965 
REMARK       I    between atoms: C2_3965  and  O6_3995 
REMARK       I    between atoms: C5_3968  and  N5_3975 
REMARK       I    between atoms: C6_3969  and  C7_3970 
REMARK       I    between atoms: C7_3970  and  C8_3971 
REMARK       I    between atoms: C8_3971  and  C9_3972 
REMARK       I    between atoms: C10_3973  and  N5_3975 
REMARK       I    between atoms: C5_3988  and  C6_3989 
REMARK       I    between atoms: C6_3989  and  O6_3995 
ROOT
HETATM    1  C1  SIA A 603     -35.248  38.465  20.589  1.00 97.87     0.240 C 
HETATM    2  C2  SIA A 603     -36.121  38.505  19.353  1.00108.65     0.271 C 
HETATM    3  C3  SIA A 603     -34.987  38.738  18.535  1.00101.59     0.103 C 
HETATM    4  C4  SIA A 603     -33.982  37.735  18.347  1.00 97.89     0.182 C 
HETATM    5  C5  SIA A 603     -34.490  36.460  17.769  1.00 90.71     0.166 C 
HETATM    6  C6  SIA A 603     -35.674  36.025  18.557  1.00 94.22     0.176 C 
HETATM    7  C7  SIA A 603     -36.438  34.976  18.012  1.00 95.96     0.214 C 
HETATM    8  C8  SIA A 603     -37.694  34.786  18.909  1.00 95.66     0.218 C 
HETATM    9  C9  SIA A 603     -38.401  33.451  18.642  1.00 86.65     0.218 C 
HETATM   10  C10 SIA A 603     -33.313  34.329  16.861  1.00 85.31     0.252 C 
HETATM   11  C11 SIA A 603     -32.160  33.348  16.982  1.00 84.13     0.100 C 
HETATM   12  N5  SIA A 603     -33.411  35.460  17.821  1.00 87.90    -0.235 NA
HETATM   13  O1A SIA A 603     -35.270  37.404  21.327  1.00 89.45    -0.644 OA
HETATM   14  O1B SIA A 603     -34.531  39.447  20.931  1.00 90.16    -0.644 OA
HETATM   15  O4  SIA A 603     -32.868  38.237  17.589  1.00 93.58    -0.221 OA
HETATM   16  O6  SIA A 603     -36.535  37.302  18.622  1.00 96.74    -0.325 OA
HETATM   17  O7  SIA A 603     -36.861  35.265  16.715  1.00 91.80    -0.218 OA
HETATM   18  O8  SIA A 603     -37.408  34.895  20.268  1.00 85.38    -0.218 OA
HETATM   19  O9  SIA A 603     -39.751  33.379  18.936  1.00 87.88    -0.218 OA
HETATM   20  O10 SIA A 603     -34.170  34.167  15.960  1.00 89.96    -0.271 OA
HETATM   21  C1  GAL A 604     -39.583  42.999  18.705  1.00159.95     0.303 C 
HETATM   22  C2  GAL A 604     -40.827  42.782  19.547  1.00158.93     0.244 C 
HETATM   23  C3  GAL A 604     -40.503  42.113  20.879  1.00146.87     0.220 C 
HETATM   24  C4  GAL A 604     -39.733  40.812  20.677  1.00134.70     0.215 C 
HETATM   25  C5  GAL A 604     -38.593  41.022  19.679  1.00131.58     0.180 C 
HETATM   26  C6  GAL A 604     -38.044  39.681  19.166  1.00107.43     0.178 C 
HETATM   27  O1  GAL A 604     -39.957  43.503  17.436  1.00171.21    -0.187 OA
HETATM   28  O2  GAL A 604     -41.421  44.042  19.792  1.00162.93    -0.215 OA
HETATM   29  O3  GAL A 604     -41.700  41.864  21.568  1.00139.56    -0.218 OA
HETATM   30  O4  GAL A 604     -40.590  39.797  20.201  1.00132.79    -0.218 OA
HETATM   31  O5  GAL A 604     -39.025  41.725  18.526  1.00150.70    -0.324 OA
HETATM   32  O6  GAL A 604     -36.644  39.784  18.949  1.00103.62    -0.324 OA
ENDROOT
TORSDOF 8
ENDMDL
MODEL 3
REMARK VINA RESULT:      -6.1      2.199      4.564
REMARK  0 active torsions:
REMARK  status: ('A' for Active; 'I' for Inactive)
REMARK       I    between atoms: C1_3964  and  C2_3965 
REMARK       I    between atoms: C2_3965  and  O6_3995 
REMARK       I    between atoms: C5_3968  and  N5_3975 
REMARK       I    between atoms: C6_3969  and  C7_3970 
REMARK       I    between atoms: C7_3970  and  C8_3971 
REMARK       I    between atoms: C8_3971  and  C9_3972 
REMARK       I    between atoms: C10_3973  and  N5_3975 
REMARK       I    between atoms: C5_3988  and  C6_3989 
REMARK       I    between atoms: C6_3989  and  O6_3995 
ROOT
HETATM    1  C1  SIA A 603     -36.060  39.578  18.896  1.00 97.87     0.240 C 
HETATM    2  C2  SIA A 603     -36.337  38.333  19.710  1.00108.65     0.271 C 
HETATM    3  C3  SIA A 603     -35.866  38.971  20.884  1.00101.59     0.103 C 
HETATM    4  C4  SIA A 603     -36.573  40.067  21.476  1.00 97.89     0.182 C 
HETATM    5  C5  SIA A 603     -37.974  39.748  21.871  1.00 90.71     0.166 C 
HETATM    6  C6  SIA A 603     -38.656  39.109  20.714  1.00 94.22     0.176 C 
HETATM    7  C7  SIA A 603     -39.904  38.515  20.972  1.00 95.96     0.214 C 
HETATM    8  C8  SIA A 603     -40.363  37.786  19.678  1.00 95.66     0.218 C 
HETATM    9  C9  SIA A 603     -41.853  37.424  19.713  1.00 86.65     0.218 C 
HETATM   10  C10 SIA A 603     -39.769  41.036  23.240  1.00 85.31     0.252 C 
HETATM   11  C11 SIA A 603     -40.395  42.372  23.600  1.00 84.13     0.100 C 
HETATM   12  N5  SIA A 603     -38.643  40.998  22.268  1.00 87.90    -0.235 NA
HETATM   13  O1A SIA A 603     -37.036  40.123  18.246  1.00 89.45    -0.644 OA
HETATM   14  O1B SIA A 603     -34.901  40.073  18.809  1.00 90.16    -0.644 OA
HETATM   15  O4  SIA A 603     -35.844  40.636  22.577  1.00 93.58    -0.221 OA
HETATM   16  O6  SIA A 603     -37.654  38.022  20.279  1.00 96.74    -0.325 OA
HETATM   17  O7  SIA A 603     -39.827  37.579  22.003  1.00 91.80    -0.218 OA
HETATM   18  O8  SIA A 603     -40.090  38.517  18.523  1.00 85.38    -0.218 OA
HETATM   19  O9  SIA A 603     -42.263  36.355  18.935  1.00 87.88    -0.218 OA
HETATM   20  O10 SIA A 603     -40.214  39.985  23.758  1.00 89.96    -0.271 OA
HETATM   21  C1  GAL A 604     -32.987  33.795  18.829  1.00159.95     0.303 C 
HETATM   22  C2  GAL A 604     -33.472  33.063  17.591  1.00158.93     0.244 C 
HETATM   23  C3  GAL A 604     -33.938  34.029  16.507  1.00146.87     0.220 C 
HETATM   24  C4  GAL A 604     -34.997  34.992  17.034  1.00134.70     0.215 C 
HETATM   25  C5  GAL A 604     -34.557  35.574  18.378  1.00131.58     0.180 C 
HETATM   26  C6  GAL A 604     -35.734  36.236  19.113  1.00107.43     0.178 C 
HETATM   27  O1  GAL A 604     -32.687  32.853  19.844  1.00171.21    -0.187 OA
HETATM   28  O2  GAL A 604     -32.402  32.284  17.090  1.00162.93    -0.215 OA
HETATM   29  O3  GAL A 604     -34.451  33.291  15.428  1.00139.56    -0.218 OA
HETATM   30  O4  GAL A 604     -36.233  34.331  17.193  1.00132.79    -0.218 OA
HETATM   31  O5  GAL A 604     -34.074  34.571  19.256  1.00150.70    -0.324 OA
HETATM   32  O6  GAL A 604     -35.275  37.369  19.836  1.00103.62    -0.324 OA
ENDROOT
TORSDOF 8
ENDMDL
MODEL 4
REMARK VINA RESULT:      -6.0      3.381      7.915
REMARK  0 active torsions:
REMARK  status: ('A' for Active; 'I' for Inactive)
REMARK       I    between atoms: C1_3964  and  C2_3965 
REMARK       I    between atoms: C2_3965  and  O6_3995 
REMARK       I    between atoms: C5_3968  and  N5_3975 
REMARK       I    between atoms: C6_3969  and  C7_3970 
REMARK       I    between atoms: C7_3970  and  C8_3971 
REMARK       I    between atoms: C8_3971  and  C9_3972 
REMARK       I    between atoms: C10_3973  and  N5_3975 
REMARK       I    between atoms: C5_3988  and  C6_3989 
REMARK       I    between atoms: C6_3989  and  O6_3995 
ROOT
HETATM    1  C1  SIA A 603     -38.960  37.497  18.908  1.00 97.87     0.240 C 
HETATM    2  C2  SIA A 603     -38.350  36.821  20.117  1.00108.65     0.271 C 
HETATM    3  C3  SIA A 603     -38.728  35.549  19.622  1.00101.59     0.103 C 
HETATM    4  C4  SIA A 603     -38.130  34.996  18.444  1.00 97.89     0.182 C 
HETATM    5  C5  SIA A 603     -36.651  34.839  18.526  1.00 90.71     0.166 C 
HETATM    6  C6  SIA A 603     -36.065  36.126  18.986  1.00 94.22     0.176 C 
HETATM    7  C7  SIA A 603     -34.709  36.100  19.360  1.00 95.96     0.214 C 
HETATM    8  C8  SIA A 603     -34.348  37.495  19.942  1.00 95.66     0.218 C 
HETATM    9  C9  SIA A 603     -32.832  37.710  20.036  1.00 86.65     0.218 C 
HETATM   10  C10 SIA A 603     -34.902  33.670  16.999  1.00 85.31     0.252 C 
HETATM   11  C11 SIA A 603     -34.460  33.318  15.590  1.00 84.13     0.100 C 
HETATM   12  N5  SIA A 603     -36.146  34.462  17.195  1.00 87.90    -0.235 NA
HETATM   13  O1A SIA A 603     -38.206  38.247  18.173  1.00 89.45    -0.644 OA
HETATM   14  O1B SIA A 603     -40.184  37.374  18.622  1.00 90.16    -0.644 OA
HETATM   15  O4  SIA A 603     -38.759  33.762  18.059  1.00 93.58    -0.221 OA
HETATM   16  O6  SIA A 603     -36.927  36.479  20.214  1.00 96.74    -0.325 OA
HETATM   17  O7  SIA A 603     -34.463  35.136  20.337  1.00 91.80    -0.218 OA
HETATM   18  O8  SIA A 603     -34.920  38.544  19.224  1.00 85.38    -0.218 OA
HETATM   19  O9  SIA A 603     -32.378  38.611  20.983  1.00 87.88    -0.218 OA
HETATM   20  O10 SIA A 603     -34.210  33.298  17.976  1.00 89.96    -0.271 OA
HETATM   21  C1  GAL A 604     -40.987  37.498  25.136  1.00159.95     0.303 C 
HETATM   22  C2  GAL A 604     -40.591  38.842  25.718  1.00158.93     0.244 C 
HETATM   23  C3  GAL A 604     -40.473  39.915  24.641  1.00146.87     0.220 C 
HETATM   24  C4  GAL A 604     -39.521  39.488  23.529  1.00134.70     0.215 C 
HETATM   25  C5  GAL A 604     -39.831  38.057  23.089  1.00131.58     0.180 C 
HETATM   26  C6  GAL A 604     -38.681  37.463  22.261  1.00107.43     0.178 C 
HETATM   27  O1  GAL A 604     -40.959  36.517  26.157  1.00171.21    -0.187 OA
HETATM   28  O2  GAL A 604     -41.581  39.229  26.652  1.00162.93    -0.215 OA
HETATM   29  O3  GAL A 604     -40.022  41.107  25.231  1.00139.56    -0.218 OA
HETATM   30  O4  GAL A 604     -38.181  39.563  23.967  1.00132.79    -0.218 OA
HETATM   31  O5  GAL A 604     -39.992  37.188  24.198  1.00150.70    -0.324 OA
HETATM   32  O6  GAL A 604     -39.202  36.603  21.258  1.00103.62    -0.324 OA
ENDROOT
TORSDOF 8
ENDMDL
MODEL 5
REMARK VINA RESULT:      -5.9      3.757      7.726
REMARK  0 active torsions:
REMARK  status: ('A' for Active; 'I' for Inactive)
REMARK       I    between atoms: C1_3964  and  C2_3965 
REMARK       I    between atoms: C2_3965  and  O6_3995 
REMARK       I    between atoms: C5_3968  and  N5_3975 
REMARK       I    between atoms: C6_3969  and  C7_3970 
REMARK       I    between atoms: C7_3970  and  C8_3971 
REMARK       I    between atoms: C8_3971  and  C9_3972 
REMARK       I    between atoms: C10_3973  and  N5_3975 
REMARK       I    between atoms: C5_3988  and  C6_3989 
REMARK       I    between atoms: C6_3989  and  O6_3995 
ROOT
HETATM    1  C1  SIA A 603     -40.129  39.266  22.215  1.00 97.87     0.240 C 
HETATM    2  C2  SIA A 603     -38.738  38.814  21.824  1.00108.65     0.271 C 
HETATM    3  C3  SIA A 603     -38.401  38.608  23.184  1.00101.59     0.103 C 
HETATM    4  C4  SIA A 603     -39.014  37.570  23.959  1.00 97.89     0.182 C 
HETATM    5  C5  SIA A 603     -38.818  36.200  23.408  1.00 90.71     0.166 C 
HETATM    6  C6  SIA A 603     -39.188  36.214  21.968  1.00 94.22     0.176 C 
HETATM    7  C7  SIA A 603     -38.835  35.076  21.220  1.00 95.96     0.214 C 
HETATM    8  C8  SIA A 603     -39.175  35.361  19.730  1.00 95.66     0.218 C 
HETATM    9  C9  SIA A 603     -39.187  34.082  18.882  1.00 86.65     0.218 C 
HETATM   10  C10 SIA A 603     -39.322  33.825  24.336  1.00 85.31     0.252 C 
HETATM   11  C11 SIA A 603     -40.243  32.933  25.150  1.00 84.13     0.100 C 
HETATM   12  N5  SIA A 603     -39.660  35.265  24.172  1.00 87.90    -0.235 NA
HETATM   13  O1A SIA A 603     -41.145  38.633  21.728  1.00 89.45    -0.644 OA
HETATM   14  O1B SIA A 603     -40.319  40.260  22.972  1.00 90.16    -0.644 OA
HETATM   15  O4  SIA A 603     -38.616  37.633  25.339  1.00 93.58    -0.221 OA
HETATM   16  O6  SIA A 603     -38.423  37.437  21.426  1.00 96.74    -0.325 OA
HETATM   17  O7  SIA A 603     -37.472  34.797  21.316  1.00 91.80    -0.218 OA
HETATM   18  O8  SIA A 603     -40.387  36.032  19.572  1.00 85.38    -0.218 OA
HETATM   19  O9  SIA A 603     -38.940  34.218  17.527  1.00 87.88    -0.218 OA
HETATM   20  O10 SIA A 603     -38.296  33.336  23.808  1.00 89.96    -0.271 OA
HETATM   21  C1  GAL A 604     -35.144  42.763  19.803  1.00159.95     0.303 C 
HETATM   22  C2  GAL A 604     -35.453  42.999  18.337  1.00158.93     0.244 C 
HETATM   23  C3  GAL A 604     -36.952  42.957  18.058  1.00146.87     0.220 C 
HETATM   24  C4  GAL A 604     -37.576  41.658  18.555  1.00134.70     0.215 C 
HETATM   25  C5  GAL A 604     -37.098  41.353  19.976  1.00131.58     0.180 C 
HETATM   26  C6  GAL A 604     -37.390  39.895  20.364  1.00107.43     0.178 C 
HETATM   27  O1  GAL A 604     -33.741  42.687  19.981  1.00171.21    -0.187 OA
HETATM   28  O2  GAL A 604     -34.949  44.272  17.978  1.00162.93    -0.215 OA
HETATM   29  O3  GAL A 604     -37.164  43.096  16.677  1.00139.56    -0.218 OA
HETATM   30  O4  GAL A 604     -37.232  40.585  17.706  1.00132.79    -0.218 OA
HETATM   31  O5  GAL A 604     -35.695  41.509  20.105  1.00150.70    -0.324 OA
HETATM   32  O6  GAL A 604     -37.710  39.818  21.746  1.00103.62    -0.324 OA
ENDROOT
TORSDOF 8
ENDMDL
MODEL 6
REMARK VINA RESULT:      -5.7      2.939      8.090
REMARK  0 active torsions:
REMARK  status: ('A' for Active; 'I' for Inactive)
REMARK       I    between atoms: C1_3964  and  C2_3965 
REMARK       I    between atoms: C2_3965  and  O6_3995 
REMARK       I    between atoms: C5_3968  and  N5_3975 
REMARK       I    between atoms: C6_3969  and  C7_3970 
REMARK       I    between atoms: C7_3970  and  C8_3971 
REMARK       I    between atoms: C8_3971  and  C9_3972 
REMARK       I    between atoms: C10_3973  and  N5_3975 
REMARK       I    between atoms: C5_3988  and  C6_3989 
REMARK       I    between atoms: C6_3989  and  O6_3995 
ROOT
HETATM    1  C1  SIA A 603     -38.214  36.141  18.209  1.00 97.87     0.240 C 
HETATM    2  C2  SIA A 603     -37.760  37.065  19.318  1.00108.65     0.271 C 
HETATM    3  C3  SIA A 603     -37.925  36.032  20.274  1.00101.59     0.103 C 
HETATM    4  C4  SIA A 603     -37.083  34.873  20.276  1.00 97.89     0.182 C 
HETATM    5  C5  SIA A 603     -35.632  35.172  20.430  1.00 90.71     0.166 C 
HETATM    6  C6  SIA A 603     -35.259  36.220  19.443  1.00 94.22     0.176 C 
HETATM    7  C7  SIA A 603     -33.991  36.809  19.603  1.00 95.96     0.214 C 
HETATM    8  C8  SIA A 603     -33.869  37.967  18.573  1.00 95.66     0.218 C 
HETATM    9  C9  SIA A 603     -32.419  38.435  18.395  1.00 86.65     0.218 C 
HETATM   10  C10 SIA A 603     -33.544  33.676  20.829  1.00 85.31     0.252 C 
HETATM   11  C11 SIA A 603     -32.834  32.362  20.555  1.00 84.13     0.100 C 
HETATM   12  N5  SIA A 603     -34.873  33.930  20.210  1.00 87.90    -0.235 NA
HETATM   13  O1A SIA A 603     -37.420  35.938  17.209  1.00 89.45    -0.644 OA
HETATM   14  O1B SIA A 603     -39.354  35.597  18.219  1.00 90.16    -0.644 OA
HETATM   15  O4  SIA A 603     -37.516  33.904  21.246  1.00 93.58    -0.221 OA
HETATM   16  O6  SIA A 603     -36.348  37.291  19.649  1.00 96.74    -0.325 OA
HETATM   17  O7  SIA A 603     -33.826  37.337  20.883  1.00 91.80    -0.218 OA
HETATM   18  O8  SIA A 603     -34.407  37.640  17.329  1.00 85.38    -0.218 OA
HETATM   19  O9  SIA A 603     -32.222  39.735  17.963  1.00 87.88    -0.218 OA
HETATM   20  O10 SIA A 603     -32.997  34.532  21.564  1.00 89.96    -0.271 OA
HETATM   21  C1  GAL A 604     -41.272  41.303  20.837  1.00159.95     0.303 C 
HETATM   22  C2  GAL A 604     -41.111  42.446  19.852  1.00158.93     0.244 C 
HETATM   23  C3  GAL A 604     -40.912  41.945  18.426  1.00146.87     0.220 C 
HETATM   24  C4  GAL A 604     -39.747  40.965  18.336  1.00134.70     0.215 C 
HETATM   25  C5  GAL A 604     -39.840  39.930  19.458  1.00131.58     0.180 C 
HETATM   26  C6  GAL A 604     -38.513  39.175  19.635  1.00107.43     0.178 C 
HETATM   27  O1  GAL A 604     -41.326  41.821  22.154  1.00171.21    -0.187 OA
HETATM   28  O2  GAL A 604     -42.278  43.244  19.906  1.00162.93    -0.215 OA
HETATM   29  O3  GAL A 604     -40.685  43.044  17.582  1.00139.56    -0.218 OA
HETATM   30  O4  GAL A 604     -38.516  41.648  18.431  1.00132.79    -0.218 OA
HETATM   31  O5  GAL A 604     -40.105  40.535  20.713  1.00150.70    -0.324 OA
HETATM   32  O6  GAL A 604     -38.770  37.828  20.005  1.00103.62    -0.324 OA
ENDROOT
TORSDOF 8
ENDMDL
MODEL 7
REMARK VINA RESULT:      -5.6      3.132      8.035
REMARK  0 active torsions:
REMARK  status: ('A' for Active; 'I' for Inactive)
REMARK       I    between atoms: C1_3964  and  C2_3965 
REMARK       I    between atoms: C2_3965  and  O6_3995 
REMARK       I    between atoms: C5_3968  and  N5_3975 
REMARK       I    between atoms: C6_3969  and  C7_3970 
REMARK       I    between atoms: C7_3970  and  C8_3971 
REMARK       I    between atoms: C8_3971  and  C9_3972 
REMARK       I    between atoms: C10_3973  and  N5_3975 
REMARK       I    between atoms: C5_3988  and  C6_3989 
REMARK       I    between atoms: C6_3989  and  O6_3995 
ROOT
HETATM    1  C1  SIA A 603     -38.024  36.051  17.752  1.00 97.87     0.240 C 
HETATM    2  C2  SIA A 603     -37.445  36.227  19.140  1.00108.65     0.271 C 
HETATM    3  C3  SIA A 603     -37.404  34.823  19.323  1.00101.59     0.103 C 
HETATM    4  C4  SIA A 603     -36.516  33.995  18.564  1.00 97.89     0.182 C 
HETATM    5  C5  SIA A 603     -35.075  34.342  18.717  1.00 90.71     0.166 C 
HETATM    6  C6  SIA A 603     -34.917  35.804  18.497  1.00 94.22     0.176 C 
HETATM    7  C7  SIA A 603     -33.672  36.359  18.842  1.00 95.96     0.214 C 
HETATM    8  C8  SIA A 603     -33.774  37.901  18.675  1.00 95.66     0.218 C 
HETATM    9  C9  SIA A 603     -32.396  38.576  18.659  1.00 86.65     0.218 C 
HETATM   10  C10 SIA A 603     -32.878  33.181  17.956  1.00 85.31     0.252 C 
HETATM   11  C11 SIA A 603     -32.156  32.367  16.897  1.00 84.13     0.100 C 
HETATM   12  N5  SIA A 603     -34.300  33.562  17.739  1.00 87.90    -0.235 NA
HETATM   13  O1A SIA A 603     -37.389  36.562  16.748  1.00 89.45    -0.644 OA
HETATM   14  O1B SIA A 603     -39.119  35.452  17.557  1.00 90.16    -0.644 OA
HETATM   15  O4  SIA A 603     -36.740  32.598  18.824  1.00 93.58    -0.221 OA
HETATM   16  O6  SIA A 603     -36.012  36.410  19.397  1.00 96.74    -0.325 OA
HETATM   17  O7  SIA A 603     -33.331  36.079  20.165  1.00 91.80    -0.218 OA
HETATM   18  O8  SIA A 603     -34.485  38.274  17.536  1.00 85.38    -0.218 OA
HETATM   19  O9  SIA A 603     -32.335  39.902  19.051  1.00 87.88    -0.218 OA
HETATM   20  O10 SIA A 603     -32.265  33.528  18.993  1.00 89.96    -0.271 OA
HETATM   21  C1  GAL A 604     -40.880  38.327  23.189  1.00159.95     0.303 C 
HETATM   22  C2  GAL A 604     -40.935  39.837  23.048  1.00158.93     0.244 C 
HETATM   23  C3  GAL A 604     -40.941  40.270  21.585  1.00146.87     0.220 C 
HETATM   24  C4  GAL A 604     -39.757  39.683  20.824  1.00134.70     0.215 C 
HETATM   25  C5  GAL A 604     -39.618  38.192  21.133  1.00131.58     0.180 C 
HETATM   26  C6  GAL A 604     -38.244  37.656  20.702  1.00107.43     0.178 C 
HETATM   27  O1  GAL A 604     -40.749  37.988  24.559  1.00171.21    -0.187 OA
HETATM   28  O2  GAL A 604     -42.118  40.297  23.673  1.00162.93    -0.215 OA
HETATM   29  O3  GAL A 604     -40.906  41.673  21.524  1.00139.56    -0.218 OA
HETATM   30  O4  GAL A 604     -38.562  40.347  21.176  1.00132.79    -0.218 OA
HETATM   31  O5  GAL A 604     -39.710  37.931  22.524  1.00150.70    -0.324 OA
HETATM   32  O6  GAL A 604     -38.371  36.319  20.240  1.00103.62    -0.324 OA
ENDROOT
TORSDOF 8
ENDMDL
MODEL 8
REMARK VINA RESULT:      -5.4      2.807      4.380
REMARK  0 active torsions:
REMARK  status: ('A' for Active; 'I' for Inactive)
REMARK       I    between atoms: C1_3964  and  C2_3965 
REMARK       I    between atoms: C2_3965  and  O6_3995 
REMARK       I    between atoms: C5_3968  and  N5_3975 
REMARK       I    between atoms: C6_3969  and  C7_3970 
REMARK       I    between atoms: C7_3970  and  C8_3971 
REMARK       I    between atoms: C8_3971  and  C9_3972 
REMARK       I    between atoms: C10_3973  and  N5_3975 
REMARK       I    between atoms: C5_3988  and  C6_3989 
REMARK       I    between atoms: C6_3989  and  O6_3995 
ROOT
HETATM    1  C1  SIA A 603     -38.151  37.561  18.346  1.00 97.87     0.240 C 
HETATM    2  C2  SIA A 603     -37.488  38.076  19.605  1.00108.65     0.271 C 
HETATM    3  C3  SIA A 603     -36.892  39.137  18.881  1.00101.59     0.103 C 
HETATM    4  C4  SIA A 603     -37.678  40.194  18.319  1.00 97.89     0.182 C 
HETATM    5  C5  SIA A 603     -38.487  40.950  19.314  1.00 90.71     0.166 C 
HETATM    6  C6  SIA A 603     -39.244  39.976  20.145  1.00 94.22     0.176 C 
HETATM    7  C7  SIA A 603     -39.870  40.487  21.296  1.00 95.96     0.214 C 
HETATM    8  C8  SIA A 603     -40.468  39.288  22.085  1.00 95.66     0.218 C 
HETATM    9  C9  SIA A 603     -41.482  39.739  23.144  1.00 86.65     0.218 C 
HETATM   10  C10 SIA A 603     -39.893  43.132  19.170  1.00 85.31     0.252 C 
HETATM   11  C11 SIA A 603     -40.817  44.012  18.347  1.00 84.13     0.100 C 
HETATM   12  N5  SIA A 603     -39.392  41.857  18.589  1.00 87.90    -0.235 NA
HETATM   13  O1A SIA A 603     -39.439  37.446  18.326  1.00 89.45    -0.644 OA
HETATM   14  O1B SIA A 603     -37.480  37.210  17.334  1.00 90.16    -0.644 OA
HETATM   15  O4  SIA A 603     -36.877  41.084  17.522  1.00 93.58    -0.221 OA
HETATM   16  O6  SIA A 603     -38.160  38.962  20.562  1.00 96.74    -0.325 OA
HETATM   17  O7  SIA A 603     -38.967  41.154  22.122  1.00 91.80    -0.218 OA
HETATM   18  O8  SIA A 603     -41.057  38.336  21.255  1.00 85.38    -0.218 OA
HETATM   19  O9  SIA A 603     -41.675  38.905  24.232  1.00 87.88    -0.218 OA
HETATM   20  O10 SIA A 603     -39.573  43.486  20.329  1.00 89.96    -0.271 OA
HETATM   21  C1  GAL A 604     -33.231  34.975  21.811  1.00159.95     0.303 C 
HETATM   22  C2  GAL A 604     -33.825  33.836  22.618  1.00158.93     0.244 C 
HETATM   23  C3  GAL A 604     -35.073  33.261  21.957  1.00146.87     0.220 C 
HETATM   24  C4  GAL A 604     -36.109  34.346  21.682  1.00134.70     0.215 C 
HETATM   25  C5  GAL A 604     -35.442  35.558  21.031  1.00131.58     0.180 C 
HETATM   26  C6  GAL A 604     -36.353  36.795  21.085  1.00107.43     0.178 C 
HETATM   27  O1  GAL A 604     -32.155  35.550  22.530  1.00171.21    -0.187 OA
HETATM   28  O2  GAL A 604     -32.849  32.818  22.732  1.00162.93    -0.215 OA
HETATM   29  O3  GAL A 604     -35.620  32.274  22.794  1.00139.56    -0.218 OA
HETATM   30  O4  GAL A 604     -36.740  34.746  22.879  1.00132.79    -0.218 OA
HETATM   31  O5  GAL A 604     -34.252  35.931  21.705  1.00150.70    -0.324 OA
HETATM   32  O6  GAL A 604     -36.172  37.580  19.915  1.00103.62    -0.324 OA
ENDROOT
TORSDOF 8
ENDMDL
MODEL 9
REMARK VINA RESULT:      -5.3      3.975      5.718
REMARK  0 active torsions:
REMARK  status: ('A' for Active; 'I' for Inactive)
REMARK       I    between atoms: C1_3964  and  C2_3965 
REMARK       I    between atoms: C2_3965  and  O6_3995 
REMARK       I    between atoms: C5_3968  and  N5_3975 
REMARK       I    between atoms: C6_3969  and  C7_3970 
REMARK       I    between atoms: C7_3970  and  C8_3971 
REMARK       I    between atoms: C8_3971  and  C9_3972 
REMARK       I    between atoms: C10_3973  and  N5_3975 
REMARK       I    between atoms: C5_3988  and  C6_3989 
REMARK       I    between atoms: C6_3989  and  O6_3995 
ROOT
HETATM    1  C1  SIA A 603     -39.459  36.007  20.407  1.00 97.87     0.240 C 
HETATM    2  C2  SIA A 603     -38.631  36.878  21.327  1.00108.65     0.271 C 
HETATM    3  C3  SIA A 603     -37.937  37.423  20.218  1.00101.59     0.103 C 
HETATM    4  C4  SIA A 603     -38.594  38.267  19.265  1.00 97.89     0.182 C 
HETATM    5  C5  SIA A 603     -39.200  39.495  19.852  1.00 90.71     0.166 C 
HETATM    6  C6  SIA A 603     -40.030  39.099  21.021  1.00 94.22     0.176 C 
HETATM    7  C7  SIA A 603     -40.481  40.142  21.850  1.00 95.96     0.214 C 
HETATM    8  C8  SIA A 603     -41.192  39.502  23.076  1.00 95.66     0.218 C 
HETATM    9  C9  SIA A 603     -42.041  40.518  23.850  1.00 86.65     0.218 C 
HETATM   10  C10 SIA A 603     -40.264  41.623  18.805  1.00 85.31     0.252 C 
HETATM   11  C11 SIA A 603     -41.104  42.224  17.692  1.00 84.13     0.100 C 
HETATM   12  N5  SIA A 603     -40.009  40.157  18.816  1.00 87.90    -0.235 NA
HETATM   13  O1A SIA A 603     -40.747  36.117  20.445  1.00 89.45    -0.644 OA
HETATM   14  O1B SIA A 603     -38.929  35.159  19.636  1.00 90.16    -0.644 OA
HETATM   15  O4  SIA A 603     -37.731  38.594  18.163  1.00 93.58    -0.221 OA
HETATM   16  O6  SIA A 603     -39.084  38.183  21.822  1.00 96.74    -0.325 OA
HETATM   17  O7  SIA A 603     -39.425  40.928  22.312  1.00 91.80    -0.218 OA
HETATM   18  O8  SIA A 603     -41.981  38.406  22.730  1.00 85.38    -0.218 OA
HETATM   19  O9  SIA A 603     -42.275  40.258  25.190  1.00 87.88    -0.218 OA
HETATM   20  O10 SIA A 603     -39.805  42.367  19.704  1.00 89.96    -0.271 OA
HETATM   21  C1  GAL A 604     -34.739  34.301  24.615  1.00159.95     0.303 C 
HETATM   22  C2  GAL A 604     -35.435  33.721  25.832  1.00158.93     0.244 C 
HETATM   23  C3  GAL A 604     -36.804  33.145  25.483  1.00146.87     0.220 C 
HETATM   24  C4  GAL A 604     -37.680  34.176  24.779  1.00134.70     0.215 C 
HETATM   25  C5  GAL A 604     -36.888  34.875  23.673  1.00131.58     0.180 C 
HETATM   26  C6  GAL A 604     -37.593  36.157  23.204  1.00107.43     0.178 C 
HETATM   27  O1  GAL A 604     -33.536  34.931  25.018  1.00171.21    -0.187 OA
HETATM   28  O2  GAL A 604     -34.619  32.693  26.360  1.00162.93    -0.215 OA
HETATM   29  O3  GAL A 604     -37.428  32.705  26.661  1.00139.56    -0.218 OA
HETATM   30  O4  GAL A 604     -38.149  35.139  25.698  1.00132.79    -0.218 OA
HETATM   31  O5  GAL A 604     -35.607  35.285  24.120  1.00150.70    -0.324 OA
HETATM   32  O6  GAL A 604     -37.386  36.340  21.810  1.00103.62    -0.324 OA
ENDROOT
TORSDOF 8
ENDMDL
