MODEL 1
REMARK VINA RESULT:      -6.1      0.000      0.000
REMARK  0 active torsions:
REMARK  status: ('A' for Active; 'I' for Inactive)
REMARK       I    between atoms: C1_3964  and  C2_3965 
REMARK       I    between atoms: C2_3965  and  O6_3995 
REMARK       I    between atoms: C5_3968  and  N5_3975 
REMARK       I    between atoms: C6_3969  and  C7_3970 
REMARK       I    between atoms: C7_3970  and  C8_3971 
REMARK       I    between atoms: C8_3971  and  C9_3972 
REMARK       I    between atoms: C10_3973  and  N5_3975 
REMARK       I    between atoms: C5_3988  and  C6_3989 
REMARK       I    between atoms: C6_3989  and  O6_3995 
ROOT
HETATM    1  C1  SIA A 603     -38.471  38.080  20.931  1.00 97.87     0.240 C 
HETATM    2  C2  SIA A 603     -37.921  38.209  19.527  1.00108.65     0.271 C 
HETATM    3  C3  SIA A 603     -39.228  38.118  18.986  1.00101.59     0.103 C 
HETATM    4  C4  SIA A 603     -40.196  39.153  19.191  1.00 97.89     0.182 C 
HETATM    5  C5  SIA A 603     -39.776  40.492  18.691  1.00 90.71     0.166 C 
HETATM    6  C6  SIA A 603     -38.417  40.787  19.219  1.00 94.22     0.176 C 
HETATM    7  C7  SIA A 603     -37.752  41.892  18.657  1.00 95.96     0.214 C 
HETATM    8  C8  SIA A 603     -36.310  41.927  19.237  1.00 95.66     0.218 C 
HETATM    9  C9  SIA A 603     -35.620  43.275  18.996  1.00 86.65     0.218 C 
HETATM   10  C10 SIA A 603     -41.025  42.753  18.404  1.00 85.31     0.252 C 
HETATM   11  C11 SIA A 603     -42.063  43.723  18.938  1.00 84.13     0.100 C 
HETATM   12  N5  SIA A 603     -40.758  41.490  19.143  1.00 87.90    -0.235 NA
HETATM   13  O1A SIA A 603     -38.219  39.019  21.783  1.00 89.45    -0.644 OA
HETATM   14  O1B SIA A 603     -39.134  37.069  21.297  1.00 90.16    -0.644 OA
HETATM   15  O4  SIA A 603     -41.483  38.787  18.664  1.00 93.58    -0.221 OA
HETATM   16  O6  SIA A 603     -37.633  39.500  18.893  1.00 96.74    -0.325 OA
HETATM   17  O7  SIA A 603     -37.667  41.792  17.268  1.00 91.80    -0.218 OA
HETATM   18  O8  SIA A 603     -36.269  41.623  20.597  1.00 85.38    -0.218 OA
HETATM   19  O9  SIA A 603     -34.237  43.281  18.959  1.00 87.88    -0.218 OA
HETATM   20  O10 SIA A 603     -40.401  43.033  17.353  1.00 89.96    -0.271 OA
HETATM   21  C1  GAL A 604     -34.950  33.806  17.433  1.00159.95     0.303 C 
HETATM   22  C2  GAL A 604     -33.532  33.876  17.968  1.00158.93     0.244 C 
HETATM   23  C3  GAL A 604     -33.494  34.345  19.419  1.00146.87     0.220 C 
HETATM   24  C4  GAL A 604     -34.221  35.674  19.595  1.00134.70     0.215 C 
HETATM   25  C5  GAL A 604     -35.575  35.632  18.886  1.00131.58     0.180 C 
HETATM   26  C6  GAL A 604     -36.161  37.043  18.714  1.00107.43     0.178 C 
HETATM   27  O1  GAL A 604     -34.916  33.489  16.053  1.00171.21    -0.187 OA
HETATM   28  O2  GAL A 604     -32.962  32.584  17.882  1.00162.93    -0.215 OA
HETATM   29  O3  GAL A 604     -32.155  34.471  19.823  1.00139.56    -0.218 OA
HETATM   30  O4  GAL A 604     -33.451  36.734  19.071  1.00132.79    -0.218 OA
HETATM   31  O5  GAL A 604     -35.468  35.102  17.575  1.00150.70    -0.324 OA
HETATM   32  O6  GAL A 604     -37.576  36.996  18.833  1.00103.62    -0.324 OA
ENDROOT
TORSDOF 8
ENDMDL
MODEL 2
REMARK VINA RESULT:      -5.5      3.247      4.988
REMARK  0 active torsions:
REMARK  status: ('A' for Active; 'I' for Inactive)
REMARK       I    between atoms: C1_3964  and  C2_3965 
REMARK       I    between atoms: C2_3965  and  O6_3995 
REMARK       I    between atoms: C5_3968  and  N5_3975 
REMARK       I    between atoms: C6_3969  and  C7_3970 
REMARK       I    between atoms: C7_3970  and  C8_3971 
REMARK       I    between atoms: C8_3971  and  C9_3972 
REMARK       I    between atoms: C10_3973  and  N5_3975 
REMARK       I    between atoms: C5_3988  and  C6_3989 
REMARK       I    between atoms: C6_3989  and  O6_3995 
ROOT
HETATM    1  C1  SIA A 603     -38.540  37.402  18.643  1.00 97.87     0.240 C 
HETATM    2  C2  SIA A 603     -37.773  37.924  19.839  1.00108.65     0.271 C 
HETATM    3  C3  SIA A 603     -36.713  38.349  19.000  1.00101.59     0.103 C 
HETATM    4  C4  SIA A 603     -36.882  39.422  18.067  1.00 97.89     0.182 C 
HETATM    5  C5  SIA A 603     -37.286  40.714  18.688  1.00 90.71     0.166 C 
HETATM    6  C6  SIA A 603     -38.450  40.465  19.579  1.00 94.22     0.176 C 
HETATM    7  C7  SIA A 603     -38.816  41.515  20.441  1.00 95.96     0.214 C 
HETATM    8  C8  SIA A 603     -39.944  40.994  21.375  1.00 95.66     0.218 C 
HETATM    9  C9  SIA A 603     -40.676  42.135  22.094  1.00 86.65     0.218 C 
HETATM   10  C10 SIA A 603     -37.492  43.137  17.771  1.00 85.31     0.252 C 
HETATM   11  C11 SIA A 603     -37.852  44.044  16.607  1.00 84.13     0.100 C 
HETATM   12  N5  SIA A 603     -37.623  41.664  17.615  1.00 87.90    -0.235 NA
HETATM   13  O1A SIA A 603     -39.727  37.863  18.421  1.00 89.45    -0.644 OA
HETATM   14  O1B SIA A 603     -38.065  36.510  17.884  1.00 90.16    -0.644 OA
HETATM   15  O4  SIA A 603     -35.721  39.590  17.236  1.00 93.58    -0.221 OA
HETATM   16  O6  SIA A 603     -37.992  39.255  20.417  1.00 96.74    -0.325 OA
HETATM   17  O7  SIA A 603     -37.745  41.932  21.230  1.00 91.80    -0.218 OA
HETATM   18  O8  SIA A 603     -40.872  40.197  20.708  1.00 85.38    -0.218 OA
HETATM   19  O9  SIA A 603     -41.290  41.835  23.297  1.00 87.88    -0.218 OA
HETATM   20  O10 SIA A 603     -37.097  43.642  18.848  1.00 89.96    -0.271 OA
HETATM   21  C1  GAL A 604     -35.585  34.086  23.457  1.00159.95     0.303 C 
HETATM   22  C2  GAL A 604     -36.682  33.619  24.396  1.00158.93     0.244 C 
HETATM   23  C3  GAL A 604     -38.022  33.481  23.680  1.00146.87     0.220 C 
HETATM   24  C4  GAL A 604     -38.411  34.773  22.968  1.00134.70     0.215 C 
HETATM   25  C5  GAL A 604     -37.221  35.316  22.175  1.00131.58     0.180 C 
HETATM   26  C6  GAL A 604     -37.445  36.781  21.764  1.00107.43     0.178 C 
HETATM   27  O1  GAL A 604     -34.400  34.317  24.198  1.00171.21    -0.187 OA
HETATM   28  O2  GAL A 604     -36.307  32.362  24.925  1.00162.93    -0.215 OA
HETATM   29  O3  GAL A 604     -39.007  33.131  24.617  1.00139.56    -0.218 OA
HETATM   30  O4  GAL A 604     -38.835  35.744  23.900  1.00132.79    -0.218 OA
HETATM   31  O5  GAL A 604     -36.029  35.313  22.942  1.00150.70    -0.324 OA
HETATM   32  O6  GAL A 604     -36.861  37.019  20.491  1.00103.62    -0.324 OA
ENDROOT
TORSDOF 8
ENDMDL
MODEL 3
REMARK VINA RESULT:      -5.4      3.140      8.394
REMARK  0 active torsions:
REMARK  status: ('A' for Active; 'I' for Inactive)
REMARK       I    between atoms: C1_3964  and  C2_3965 
REMARK       I    between atoms: C2_3965  and  O6_3995 
REMARK       I    between atoms: C5_3968  and  N5_3975 
REMARK       I    between atoms: C6_3969  and  C7_3970 
REMARK       I    between atoms: C7_3970  and  C8_3971 
REMARK       I    between atoms: C8_3971  and  C9_3972 
REMARK       I    between atoms: C10_3973  and  N5_3975 
REMARK       I    between atoms: C5_3988  and  C6_3989 
REMARK       I    between atoms: C6_3989  and  O6_3995 
ROOT
HETATM    1  C1  SIA A 603     -35.005  38.967  20.038  1.00 97.87     0.240 C 
HETATM    2  C2  SIA A 603     -36.343  38.293  19.820  1.00108.65     0.271 C 
HETATM    3  C3  SIA A 603     -36.200  38.421  18.416  1.00101.59     0.103 C 
HETATM    4  C4  SIA A 603     -35.201  37.689  17.696  1.00 97.89     0.182 C 
HETATM    5  C5  SIA A 603     -35.307  36.210  17.836  1.00 90.71     0.166 C 
HETATM    6  C6  SIA A 603     -35.409  35.880  19.283  1.00 94.22     0.176 C 
HETATM    7  C7  SIA A 603     -35.764  34.556  19.600  1.00 95.96     0.214 C 
HETATM    8  C8  SIA A 603     -35.959  34.471  21.140  1.00 95.66     0.218 C 
HETATM    9  C9  SIA A 603     -35.979  33.022  21.643  1.00 86.65     0.218 C 
HETATM   10  C10 SIA A 603     -34.120  34.225  16.651  1.00 85.31     0.252 C 
HETATM   11  C11 SIA A 603     -32.848  33.673  16.032  1.00 84.13     0.100 C 
HETATM   12  N5  SIA A 603     -34.116  35.596  17.227  1.00 87.90    -0.235 NA
HETATM   13  O1A SIA A 603     -34.093  38.331  20.697  1.00 89.45    -0.644 OA
HETATM   14  O1B SIA A 603     -34.773  40.139  19.626  1.00 90.16    -0.644 OA
HETATM   15  O4  SIA A 603     -35.157  38.073  16.311  1.00 93.58    -0.221 OA
HETATM   16  O6  SIA A 603     -36.512  36.836  19.778  1.00 96.74    -0.325 OA
HETATM   17  O7  SIA A 603     -36.957  34.180  18.983  1.00 91.80    -0.218 OA
HETATM   18  O8  SIA A 603     -34.998  35.193  21.846  1.00 85.38    -0.218 OA
HETATM   19  O9  SIA A 603     -36.653  32.771  22.826  1.00 87.88    -0.218 OA
HETATM   20  O10 SIA A 603     -35.153  33.515  16.675  1.00 89.96    -0.271 OA
HETATM   21  C1  GAL A 604     -41.037  41.198  21.279  1.00159.95     0.303 C 
HETATM   22  C2  GAL A 604     -41.245  41.069  22.776  1.00158.93     0.244 C 
HETATM   23  C3  GAL A 604     -39.924  41.103  23.538  1.00146.87     0.220 C 
HETATM   24  C4  GAL A 604     -38.952  40.048  23.019  1.00134.70     0.215 C 
HETATM   25  C5  GAL A 604     -38.905  40.082  21.491  1.00131.58     0.180 C 
HETATM   26  C6  GAL A 604     -38.248  38.814  20.922  1.00107.43     0.178 C 
HETATM   27  O1  GAL A 604     -42.278  41.034  20.617  1.00171.21    -0.187 OA
HETATM   28  O2  GAL A 604     -42.056  42.146  23.205  1.00162.93    -0.215 OA
HETATM   29  O3  GAL A 604     -40.178  40.893  24.903  1.00139.56    -0.218 OA
HETATM   30  O4  GAL A 604     -39.343  38.761  23.445  1.00132.79    -0.218 OA
HETATM   31  O5  GAL A 604     -40.203  40.128  20.923  1.00150.70    -0.324 OA
HETATM   32  O6  GAL A 604     -37.509  39.135  19.753  1.00103.62    -0.324 OA
ENDROOT
TORSDOF 8
ENDMDL
MODEL 4
REMARK VINA RESULT:      -5.3      1.859      2.012
REMARK  0 active torsions:
REMARK  status: ('A' for Active; 'I' for Inactive)
REMARK       I    between atoms: C1_3964  and  C2_3965 
REMARK       I    between atoms: C2_3965  and  O6_3995 
REMARK       I    between atoms: C5_3968  and  N5_3975 
REMARK       I    between atoms: C6_3969  and  C7_3970 
REMARK       I    between atoms: C7_3970  and  C8_3971 
REMARK       I    between atoms: C8_3971  and  C9_3972 
REMARK       I    between atoms: C10_3973  and  N5_3975 
REMARK       I    between atoms: C5_3988  and  C6_3989 
REMARK       I    between atoms: C6_3989  and  O6_3995 
ROOT
HETATM    1  C1  SIA A 603     -39.651  38.687  21.991  1.00 97.87     0.240 C 
HETATM    2  C2  SIA A 603     -38.759  38.541  20.777  1.00108.65     0.271 C 
HETATM    3  C3  SIA A 603     -39.892  38.494  19.926  1.00101.59     0.103 C 
HETATM    4  C4  SIA A 603     -40.733  39.638  19.736  1.00 97.89     0.182 C 
HETATM    5  C5  SIA A 603     -40.026  40.835  19.200  1.00 90.71     0.166 C 
HETATM    6  C6  SIA A 603     -38.812  41.074  20.026  1.00 94.22     0.176 C 
HETATM    7  C7  SIA A 603     -37.887  42.008  19.525  1.00 95.96     0.214 C 
HETATM    8  C8  SIA A 603     -36.642  41.993  20.456  1.00 95.66     0.218 C 
HETATM    9  C9  SIA A 603     -35.739  43.213  20.237  1.00 86.65     0.218 C 
HETATM   10  C10 SIA A 603     -40.849  43.134  18.311  1.00 85.31     0.252 C 
HETATM   11  C11 SIA A 603     -41.848  44.272  18.426  1.00 84.13     0.100 C 
HETATM   12  N5  SIA A 603     -40.946  41.982  19.248  1.00 87.90    -0.235 NA
HETATM   13  O1A SIA A 603     -39.493  39.719  22.754  1.00 89.45    -0.644 OA
HETATM   14  O1B SIA A 603     -40.514  37.815  22.293  1.00 90.16    -0.644 OA
HETATM   15  O4  SIA A 603     -41.887  39.321  18.939  1.00 93.58    -0.221 OA
HETATM   16  O6  SIA A 603     -38.152  39.683  20.083  1.00 96.74    -0.325 OA
HETATM   17  O7  SIA A 603     -37.476  41.684  18.232  1.00 91.80    -0.218 OA
HETATM   18  O8  SIA A 603     -36.979  41.903  21.805  1.00 85.38    -0.218 OA
HETATM   19  O9  SIA A 603     -34.401  43.079  20.566  1.00 87.88    -0.218 OA
HETATM   20  O10 SIA A 603     -39.954  43.183  17.436  1.00 89.96    -0.271 OA
HETATM   21  C1  GAL A 604     -35.982  33.597  20.113  1.00159.95     0.303 C 
HETATM   22  C2  GAL A 604     -34.744  33.611  20.989  1.00158.93     0.244 C 
HETATM   23  C3  GAL A 604     -35.003  34.295  22.328  1.00146.87     0.220 C 
HETATM   24  C4  GAL A 604     -35.566  35.700  22.137  1.00134.70     0.215 C 
HETATM   25  C5  GAL A 604     -36.696  35.679  21.107  1.00131.58     0.180 C 
HETATM   26  C6  GAL A 604     -37.026  37.096  20.611  1.00107.43     0.178 C 
HETATM   27  O1  GAL A 604     -35.652  33.066  18.842  1.00171.21    -0.187 OA
HETATM   28  O2  GAL A 604     -34.350  32.272  21.221  1.00162.93    -0.215 OA
HETATM   29  O3  GAL A 604     -33.801  34.351  23.052  1.00139.56    -0.218 OA
HETATM   30  O4  GAL A 604     -34.555  36.585  21.705  1.00132.79    -0.218 OA
HETATM   31  O5  GAL A 604     -36.341  34.943  19.949  1.00150.70    -0.324 OA
HETATM   32  O6  GAL A 604     -38.420  37.206  20.357  1.00103.62    -0.324 OA
ENDROOT
TORSDOF 8
ENDMDL
MODEL 5
REMARK VINA RESULT:      -5.2      2.050      2.597
REMARK  0 active torsions:
REMARK  status: ('A' for Active; 'I' for Inactive)
REMARK       I    between atoms: C1_3964  and  C2_3965 
REMARK       I    between atoms: C2_3965  and  O6_3995 
REMARK       I    between atoms: C5_3968  and  N5_3975 
REMARK       I    between atoms: C6_3969  and  C7_3970 
REMARK       I    between atoms: C7_3970  and  C8_3971 
REMARK       I    between atoms: C8_3971  and  C9_3972 
REMARK       I    between atoms: C10_3973  and  N5_3975 
REMARK       I    between atoms: C5_3988  and  C6_3989 
REMARK       I    between atoms: C6_3989  and  O6_3995 
ROOT
HETATM    1  C1  SIA A 603     -37.325  39.302  22.111  1.00 97.87     0.240 C 
HETATM    2  C2  SIA A 603     -38.092  38.921  20.863  1.00108.65     0.271 C 
HETATM    3  C3  SIA A 603     -39.282  38.769  21.618  1.00101.59     0.103 C 
HETATM    4  C4  SIA A 603     -39.932  39.892  22.224  1.00 97.89     0.182 C 
HETATM    5  C5  SIA A 603     -40.340  40.955  21.263  1.00 90.71     0.166 C 
HETATM    6  C6  SIA A 603     -39.171  41.290  20.407  1.00 94.22     0.176 C 
HETATM    7  C7  SIA A 603     -39.429  42.092  19.281  1.00 95.96     0.214 C 
HETATM    8  C8  SIA A 603     -38.115  42.193  18.456  1.00 95.66     0.218 C 
HETATM    9  C9  SIA A 603     -38.164  43.326  17.423  1.00 86.65     0.218 C 
HETATM   10  C10 SIA A 603     -41.795  43.096  21.496  1.00 85.31     0.252 C 
HETATM   11  C11 SIA A 603     -42.222  44.271  22.358  1.00 84.13     0.100 C 
HETATM   12  N5  SIA A 603     -40.801  42.125  22.028  1.00 87.90    -0.235 NA
HETATM   13  O1A SIA A 603     -36.717  40.443  22.139  1.00 89.45    -0.644 OA
HETATM   14  O1B SIA A 603     -37.236  38.525  23.103  1.00 90.16    -0.644 OA
HETATM   15  O4  SIA A 603     -41.041  39.484  23.043  1.00 93.58    -0.221 OA
HETATM   16  O6  SIA A 603     -38.673  39.906  19.944  1.00 96.74    -0.325 OA
HETATM   17  O7  SIA A 603     -40.419  41.538  18.469  1.00 91.80    -0.218 OA
HETATM   18  O8  SIA A 603     -36.986  42.345  19.258  1.00 85.38    -0.218 OA
HETATM   19  O9  SIA A 603     -37.351  43.203  16.309  1.00 87.88    -0.218 OA
HETATM   20  O10 SIA A 603     -42.278  42.965  20.347  1.00 89.96    -0.271 OA
HETATM   21  C1  GAL A 604     -36.962  33.843  18.511  1.00159.95     0.303 C 
HETATM   22  C2  GAL A 604     -35.704  33.964  17.670  1.00158.93     0.244 C 
HETATM   23  C3  GAL A 604     -34.669  34.874  18.323  1.00146.87     0.220 C 
HETATM   24  C4  GAL A 604     -35.256  36.244  18.646  1.00134.70     0.215 C 
HETATM   25  C5  GAL A 604     -36.614  36.088  19.332  1.00131.58     0.180 C 
HETATM   26  C6  GAL A 604     -37.398  37.410  19.329  1.00107.43     0.178 C 
HETATM   27  O1  GAL A 604     -37.931  33.092  17.801  1.00171.21    -0.187 OA
HETATM   28  O2  GAL A 604     -35.152  32.671  17.512  1.00162.93    -0.215 OA
HETATM   29  O3  GAL A 604     -33.572  35.011  17.459  1.00139.56    -0.218 OA
HETATM   30  O4  GAL A 604     -35.412  37.008  17.470  1.00132.79    -0.218 OA
HETATM   31  O5  GAL A 604     -37.441  35.153  18.659  1.00150.70    -0.324 OA
HETATM   32  O6  GAL A 604     -38.158  37.523  20.524  1.00103.62    -0.324 OA
ENDROOT
TORSDOF 8
ENDMDL
MODEL 6
REMARK VINA RESULT:      -5.2      2.801      4.608
REMARK  0 active torsions:
REMARK  status: ('A' for Active; 'I' for Inactive)
REMARK       I    between atoms: C1_3964  and  C2_3965 
REMARK       I    between atoms: C2_3965  and  O6_3995 
REMARK       I    between atoms: C5_3968  and  N5_3975 
REMARK       I    between atoms: C6_3969  and  C7_3970 
REMARK       I    between atoms: C7_3970  and  C8_3971 
REMARK       I    between atoms: C8_3971  and  C9_3972 
REMARK       I    between atoms: C10_3973  and  N5_3975 
REMARK       I    between atoms: C5_3988  and  C6_3989 
REMARK       I    between atoms: C6_3989  and  O6_3995 
ROOT
HETATM    1  C1  SIA A 603     -41.108  38.642  19.764  1.00 97.87     0.240 C 
HETATM    2  C2  SIA A 603     -39.678  38.915  20.175  1.00108.65     0.271 C 
HETATM    3  C3  SIA A 603     -39.770  40.243  19.689  1.00101.59     0.103 C 
HETATM    4  C4  SIA A 603     -40.615  41.213  20.317  1.00 97.89     0.182 C 
HETATM    5  C5  SIA A 603     -40.301  41.459  21.753  1.00 90.71     0.166 C 
HETATM    6  C6  SIA A 603     -40.221  40.147  22.449  1.00 94.22     0.176 C 
HETATM    7  C7  SIA A 603     -39.692  40.161  23.752  1.00 95.96     0.214 C 
HETATM    8  C8  SIA A 603     -39.561  38.687  24.229  1.00 95.66     0.218 C 
HETATM    9  C9  SIA A 603     -39.353  38.584  25.746  1.00 86.65     0.218 C 
HETATM   10  C10 SIA A 603     -41.126  43.224  23.473  1.00 85.31     0.252 C 
HETATM   11  C11 SIA A 603     -42.273  44.072  23.993  1.00 84.13     0.100 C 
HETATM   12  N5  SIA A 603     -41.359  42.309  22.324  1.00 87.90    -0.235 NA
HETATM   13  O1A SIA A 603     -41.949  38.255  20.667  1.00 89.45    -0.644 OA
HETATM   14  O1B SIA A 603     -41.489  38.749  18.564  1.00 90.16    -0.644 OA
HETATM   15  O4  SIA A 603     -40.648  42.446  19.578  1.00 93.58    -0.221 OA
HETATM   16  O6  SIA A 603     -39.295  39.325  21.532  1.00 96.74    -0.325 OA
HETATM   17  O7  SIA A 603     -38.429  40.752  23.790  1.00 91.80    -0.218 OA
HETATM   18  O8  SIA A 603     -40.650  37.901  23.857  1.00 85.38    -0.218 OA
HETATM   19  O9  SIA A 603     -38.707  37.457  26.221  1.00 87.88    -0.218 OA
HETATM   20  O10 SIA A 603     -40.003  43.299  24.025  1.00 89.96    -0.271 OA
HETATM   21  C1  GAL A 604     -35.534  36.345  17.204  1.00159.95     0.303 C 
HETATM   22  C2  GAL A 604     -35.382  34.922  17.709  1.00158.93     0.244 C 
HETATM   23  C3  GAL A 604     -36.729  34.295  18.054  1.00146.87     0.220 C 
HETATM   24  C4  GAL A 604     -37.509  35.155  19.042  1.00134.70     0.215 C 
HETATM   25  C5  GAL A 604     -37.488  36.619  18.598  1.00131.58     0.180 C 
HETATM   26  C6  GAL A 604     -37.924  37.555  19.736  1.00107.43     0.178 C 
HETATM   27  O1  GAL A 604     -34.252  36.918  17.021  1.00171.21    -0.187 OA
HETATM   28  O2  GAL A 604     -34.759  34.157  16.696  1.00162.93    -0.215 OA
HETATM   29  O3  GAL A 604     -36.512  33.017  18.594  1.00139.56    -0.218 OA
HETATM   30  O4  GAL A 604     -36.956  35.051  20.336  1.00132.79    -0.218 OA
HETATM   31  O5  GAL A 604     -36.185  37.041  18.234  1.00150.70    -0.324 OA
HETATM   32  O6  GAL A 604     -38.645  38.657  19.205  1.00103.62    -0.324 OA
ENDROOT
TORSDOF 8
ENDMDL
MODEL 7
REMARK VINA RESULT:      -5.0      4.016      7.870
REMARK  0 active torsions:
REMARK  status: ('A' for Active; 'I' for Inactive)
REMARK       I    between atoms: C1_3964  and  C2_3965 
REMARK       I    between atoms: C2_3965  and  O6_3995 
REMARK       I    between atoms: C5_3968  and  N5_3975 
REMARK       I    between atoms: C6_3969  and  C7_3970 
REMARK       I    between atoms: C7_3970  and  C8_3971 
REMARK       I    between atoms: C8_3971  and  C9_3972 
REMARK       I    between atoms: C10_3973  and  N5_3975 
REMARK       I    between atoms: C5_3988  and  C6_3989 
REMARK       I    between atoms: C6_3989  and  O6_3995 
ROOT
HETATM    1  C1  SIA A 603     -36.612  35.516  20.205  1.00 97.87     0.240 C 
HETATM    2  C2  SIA A 603     -37.111  36.646  21.080  1.00108.65     0.271 C 
HETATM    3  C3  SIA A 603     -38.165  35.834  21.564  1.00101.59     0.103 C 
HETATM    4  C4  SIA A 603     -37.912  34.695  22.395  1.00 97.89     0.182 C 
HETATM    5  C5  SIA A 603     -37.194  35.011  23.662  1.00 90.71     0.166 C 
HETATM    6  C6  SIA A 603     -35.997  35.831  23.333  1.00 94.22     0.176 C 
HETATM    7  C7  SIA A 603     -35.333  36.433  24.417  1.00 95.96     0.214 C 
HETATM    8  C8  SIA A 603     -34.218  37.352  23.843  1.00 95.66     0.218 C 
HETATM    9  C9  SIA A 603     -33.199  37.764  24.912  1.00 86.65     0.218 C 
HETATM   10  C10 SIA A 603     -36.645  33.619  25.786  1.00 85.31     0.252 C 
HETATM   11  C11 SIA A 603     -36.265  32.272  26.376  1.00 84.13     0.100 C 
HETATM   12  N5  SIA A 603     -36.819  33.746  24.314  1.00 87.90    -0.235 NA
HETATM   13  O1A SIA A 603     -35.396  35.106  20.358  1.00 89.45    -0.644 OA
HETATM   14  O1B SIA A 603     -37.339  34.992  19.314  1.00 90.16    -0.644 OA
HETATM   15  O4  SIA A 603     -39.114  33.951  22.656  1.00 93.58    -0.221 OA
HETATM   16  O6  SIA A 603     -36.571  36.928  22.415  1.00 96.74    -0.325 OA
HETATM   17  O7  SIA A 603     -36.198  37.213  25.184  1.00 91.80    -0.218 OA
HETATM   18  O8  SIA A 603     -33.550  36.778  22.763  1.00 85.38    -0.218 OA
HETATM   19  O9  SIA A 603     -32.509  38.946  24.706  1.00 87.88    -0.218 OA
HETATM   20  O10 SIA A 603     -36.798  34.605  26.545  1.00 89.96    -0.271 OA
HETATM   21  C1  GAL A 604     -39.524  41.126  18.491  1.00159.95     0.303 C 
HETATM   22  C2  GAL A 604     -38.429  42.041  17.975  1.00158.93     0.244 C 
HETATM   23  C3  GAL A 604     -37.240  41.254  17.433  1.00146.87     0.220 C 
HETATM   24  C4  GAL A 604     -36.703  40.270  18.467  1.00134.70     0.215 C 
HETATM   25  C5  GAL A 604     -37.855  39.490  19.101  1.00131.58     0.180 C 
HETATM   26  C6  GAL A 604     -37.409  38.780  20.389  1.00107.43     0.178 C 
HETATM   27  O1  GAL A 604     -40.541  41.906  19.094  1.00171.21    -0.187 OA
HETATM   28  O2  GAL A 604     -38.969  42.839  16.939  1.00162.93    -0.215 OA
HETATM   29  O3  GAL A 604     -36.231  42.154  17.054  1.00139.56    -0.218 OA
HETATM   30  O4  GAL A 604     -35.989  40.951  19.476  1.00132.79    -0.218 OA
HETATM   31  O5  GAL A 604     -38.921  40.343  19.485  1.00150.70    -0.324 OA
HETATM   32  O6  GAL A 604     -38.090  37.540  20.518  1.00103.62    -0.324 OA
ENDROOT
TORSDOF 8
ENDMDL
MODEL 8
REMARK VINA RESULT:      -5.0      3.012      7.457
REMARK  0 active torsions:
REMARK  status: ('A' for Active; 'I' for Inactive)
REMARK       I    between atoms: C1_3964  and  C2_3965 
REMARK       I    between atoms: C2_3965  and  O6_3995 
REMARK       I    between atoms: C5_3968  and  N5_3975 
REMARK       I    between atoms: C6_3969  and  C7_3970 
REMARK       I    between atoms: C7_3970  and  C8_3971 
REMARK       I    between atoms: C8_3971  and  C9_3972 
REMARK       I    between atoms: C10_3973  and  N5_3975 
REMARK       I    between atoms: C5_3988  and  C6_3989 
REMARK       I    between atoms: C6_3989  and  O6_3995 
ROOT
HETATM    1  C1  SIA A 603     -38.491  38.810  20.280  1.00 97.87     0.240 C 
HETATM    2  C2  SIA A 603     -37.146  38.478  20.890  1.00108.65     0.271 C 
HETATM    3  C3  SIA A 603     -37.745  38.294  22.160  1.00101.59     0.103 C 
HETATM    4  C4  SIA A 603     -38.639  37.205  22.415  1.00 97.89     0.182 C 
HETATM    5  C5  SIA A 603     -38.044  35.858  22.185  1.00 90.71     0.166 C 
HETATM    6  C6  SIA A 603     -37.406  35.849  20.842  1.00 94.22     0.176 C 
HETATM    7  C7  SIA A 603     -36.580  34.749  20.548  1.00 95.96     0.214 C 
HETATM    8  C8  SIA A 603     -35.905  35.012  19.173  1.00 95.66     0.218 C 
HETATM    9  C9  SIA A 603     -35.285  33.742  18.577  1.00 86.65     0.218 C 
HETATM   10  C10 SIA A 603     -38.863  33.445  22.693  1.00 85.31     0.252 C 
HETATM   11  C11 SIA A 603     -40.028  32.474  22.774  1.00 84.13     0.100 C 
HETATM   12  N5  SIA A 603     -39.114  34.852  22.281  1.00 87.90    -0.235 NA
HETATM   13  O1A SIA A 603     -38.914  38.097  19.288  1.00 89.45    -0.644 OA
HETATM   14  O1B SIA A 603     -39.188  39.781  20.691  1.00 90.16    -0.644 OA
HETATM   15  O4  SIA A 603     -39.222  37.293  23.726  1.00 93.58    -0.221 OA
HETATM   16  O6  SIA A 603     -36.556  37.135  20.853  1.00 96.74    -0.325 OA
HETATM   17  O7  SIA A 603     -35.579  34.584  21.506  1.00 91.80    -0.218 OA
HETATM   18  O8  SIA A 603     -36.776  35.580  18.245  1.00 85.38    -0.218 OA
HETATM   19  O9  SIA A 603     -34.237  33.905  17.688  1.00 87.88    -0.218 OA
HETATM   20  O10 SIA A 603     -37.706  33.046  22.966  1.00 89.96    -0.271 OA
HETATM   21  C1  GAL A 604     -33.369  42.725  21.437  1.00159.95     0.303 C 
HETATM   22  C2  GAL A 604     -32.682  42.943  20.102  1.00158.93     0.244 C 
HETATM   23  C3  GAL A 604     -33.648  42.777  18.933  1.00146.87     0.220 C 
HETATM   24  C4  GAL A 604     -34.356  41.428  18.980  1.00134.70     0.215 C 
HETATM   25  C5  GAL A 604     -34.879  41.156  20.392  1.00131.58     0.180 C 
HETATM   26  C6  GAL A 604     -35.252  39.676  20.575  1.00107.43     0.178 C 
HETATM   27  O1  GAL A 604     -32.404  42.767  22.473  1.00171.21    -0.187 OA
HETATM   28  O2  GAL A 604     -32.154  44.255  20.085  1.00162.93    -0.215 OA
HETATM   29  O3  GAL A 604     -32.935  42.906  17.730  1.00139.56    -0.218 OA
HETATM   30  O4  GAL A 604     -33.476  40.392  18.601  1.00132.79    -0.218 OA
HETATM   31  O5  GAL A 604     -33.899  41.428  21.379  1.00150.70    -0.324 OA
HETATM   32  O6  GAL A 604     -36.377  39.566  21.437  1.00103.62    -0.324 OA
ENDROOT
TORSDOF 8
ENDMDL
MODEL 9
REMARK VINA RESULT:      -4.7      3.568      4.311
REMARK  0 active torsions:
REMARK  status: ('A' for Active; 'I' for Inactive)
REMARK       I    between atoms: C1_3964  and  C2_3965 
REMARK       I    between atoms: C2_3965  and  O6_3995 
REMARK       I    between atoms: C5_3968  and  N5_3975 
REMARK       I    between atoms: C6_3969  and  C7_3970 
REMARK       I    between atoms: C7_3970  and  C8_3971 
REMARK       I    between atoms: C8_3971  and  C9_3972 
REMARK       I    between atoms: C10_3973  and  N5_3975 
REMARK       I    between atoms: C5_3988  and  C6_3989 
REMARK       I    between atoms: C6_3989  and  O6_3995 
ROOT
HETATM    1  C1  SIA A 603     -40.558  39.030  22.717  1.00 97.87     0.240 C 
HETATM    2  C2  SIA A 603     -39.275  38.634  22.019  1.00108.65     0.271 C 
HETATM    3  C3  SIA A 603     -39.961  38.515  20.784  1.00101.59     0.103 C 
HETATM    4  C4  SIA A 603     -40.505  39.659  20.117  1.00 97.89     0.182 C 
HETATM    5  C5  SIA A 603     -39.500  40.707  19.783  1.00 90.71     0.166 C 
HETATM    6  C6  SIA A 603     -38.708  41.007  21.005  1.00 94.22     0.176 C 
HETATM    7  C7  SIA A 603     -37.552  41.789  20.826  1.00 95.96     0.214 C 
HETATM    8  C8  SIA A 603     -36.805  41.854  22.188  1.00 95.66     0.218 C 
HETATM    9  C9  SIA A 603     -35.748  42.965  22.218  1.00 86.65     0.218 C 
HETATM   10  C10 SIA A 603     -39.603  42.873  18.350  1.00 85.31     0.252 C 
HETATM   11  C11 SIA A 603     -40.414  44.072  17.891  1.00 84.13     0.100 C 
HETATM   12  N5  SIA A 603     -40.212  41.899  19.295  1.00 87.90    -0.235 NA
HETATM   13  O1A SIA A 603     -40.598  40.163  23.340  1.00 89.45    -0.644 OA
HETATM   14  O1B SIA A 603     -41.569  38.273  22.736  1.00 90.16    -0.644 OA
HETATM   15  O4  SIA A 603     -41.265  39.284  18.956  1.00 93.58    -0.221 OA
HETATM   16  O6  SIA A 603     -38.303  39.607  21.508  1.00 96.74    -0.325 OA
HETATM   17  O7  SIA A 603     -36.694  41.232  19.878  1.00 91.80    -0.218 OA
HETATM   18  O8  SIA A 603     -37.669  42.007  23.270  1.00 85.38    -0.218 OA
HETATM   19  O9  SIA A 603     -34.687  42.807  23.093  1.00 87.88    -0.218 OA
HETATM   20  O10 SIA A 603     -38.430  42.724  17.933  1.00 89.96    -0.271 OA
HETATM   21  C1  GAL A 604     -37.097  33.491  23.208  1.00159.95     0.303 C 
HETATM   22  C2  GAL A 604     -36.330  33.577  24.515  1.00158.93     0.244 C 
HETATM   23  C3  GAL A 604     -37.024  34.486  25.523  1.00146.87     0.220 C 
HETATM   24  C4  GAL A 604     -37.285  35.871  24.939  1.00134.70     0.215 C 
HETATM   25  C5  GAL A 604     -37.892  35.748  23.541  1.00131.58     0.180 C 
HETATM   26  C6  GAL A 604     -37.816  37.081  22.779  1.00107.43     0.178 C 
HETATM   27  O1  GAL A 604     -36.346  32.740  22.271  1.00171.21    -0.187 OA
HETATM   28  O2  GAL A 604     -36.232  32.273  25.056  1.00162.93    -0.215 OA
HETATM   29  O3  GAL A 604     -36.224  34.590  26.672  1.00139.56    -0.218 OA
HETATM   30  O4  GAL A 604     -36.085  36.611  24.865  1.00132.79    -0.218 OA
HETATM   31  O5  GAL A 604     -37.190  34.811  22.741  1.00150.70    -0.324 OA
HETATM   32  O6  GAL A 604     -38.961  37.230  21.952  1.00103.62    -0.324 OA
ENDROOT
TORSDOF 8
ENDMDL
